<?xml version="1.0" encoding="UTF-8"?>

<!-- generated on 2024-01-15 08:37:15 by Eclipse SUMO netedit Version 1.18.0
<configuration xmlns:xsi="http://www.w3.org/2001/XMLSchema-instance" xsi:noNamespaceSchemaLocation="http://sumo.dlr.de/xsd/neteditConfiguration.xsd">

    <input>
        <sumo-net-file value="C:\D\SUMO\PriorityLane\sumo_configs\Grid1.net.xml"/>
    </input>

    <output>
        <output-file value="C:\D\SUMO\PriorityLane\sumo_configs\Grid1.net.xml"/>
    </output>

    <processing>
        <geometry.min-radius.fix.railways value="false"/>
        <geometry.max-grade.fix value="false"/>
        <offset.disable-normalization value="true"/>
        <lefthand value="0"/>
    </processing>

    <junctions>
        <no-turnarounds value="true"/>
        <junctions.corner-detail value="5"/>
        <junctions.limit-turn-speed value="5.50"/>
        <rectangular-lane-cut value="0"/>
    </junctions>

    <pedestrian>
        <walkingareas value="0"/>
    </pedestrian>

</configuration>
-->

<net version="1.16" junctionCornerDetail="5" limitTurnSpeed="5.50" xmlns:xsi="http://www.w3.org/2001/XMLSchema-instance" xsi:noNamespaceSchemaLocation="http://sumo.dlr.de/xsd/net_file.xsd">

    <location netOffset="0.00,0.00" convBoundary="0.00,0.00,400.00,200.00" origBoundary="0.00,0.00,400.00,200.00" projParameter="!"/>

    <edge id=":A0_0" function="internal">
        <lane id=":A0_0_0" index="0" allow="custom1 custom2" speed="11.12" length="28.38" width="3.20" shape="-8.00,9.60 -6.90,1.90 -3.60,-3.60 1.90,-6.90 9.60,-8.00"/>
        <lane id=":A0_0_1" index="1" disallow="custom1" speed="10.10" length="23.22" width="3.20" shape="-4.80,9.60 -3.90,3.30 -1.20,-1.20 3.30,-3.90 9.60,-4.80"/>
        <lane id=":A0_0_2" index="2" disallow="custom1" speed="8.96" length="18.06" width="3.20" shape="-1.60,9.60 -0.90,4.70 1.20,1.20 4.70,-0.90 9.60,-1.60"/>
    </edge>
    <edge id=":A0_3" function="internal">
        <lane id=":A0_3_0" index="0" allow="custom1 custom2" speed="3.90" length="2.58" width="3.20" shape="9.60,8.00 8.90,8.10 8.40,8.40 8.10,8.90 8.00,9.60"/>
        <lane id=":A0_3_1" index="1" disallow="custom1" speed="6.08" length="7.74" width="3.20" shape="9.60,4.80 7.50,5.10 6.00,6.00 5.10,7.50 4.80,9.60"/>
        <lane id=":A0_3_2" index="2" disallow="custom1" speed="7.66" length="12.90" width="3.20" shape="9.60,1.60 6.10,2.10 3.60,3.60 2.10,6.10 1.60,9.60"/>
    </edge>
    <edge id=":A1_0" function="internal">
        <lane id=":A1_0_0" index="0" allow="custom1 custom2" speed="25.00" length="27.20" width="3.20" shape="-8.00,113.60 -8.00,86.40"/>
    </edge>
    <edge id=":A1_1" function="internal">
        <lane id=":A1_1_0" index="0" allow="custom1 custom2" speed="12.28" length="19.10" width="3.20" shape="-8.00,113.60 -6.65,104.15 -2.60,97.40 -1.16,96.54"/>
    </edge>
    <edge id=":A1_2" function="internal">
        <lane id=":A1_2_0" index="0" disallow="custom1" speed="13.89" length="27.20" width="3.20" shape="-4.80,113.60 -4.80,86.40"/>
    </edge>
    <edge id=":A1_3" function="internal">
        <lane id=":A1_3_0" index="0" disallow="custom1" speed="11.36" length="13.36" width="3.20" shape="-4.80,113.60 -3.65,105.55 -0.96,101.06"/>
    </edge>
    <edge id=":A1_4" function="internal">
        <lane id=":A1_4_0" index="0" disallow="custom1" speed="13.89" length="27.20" width="3.20" shape="-1.60,113.60 -1.60,86.40"/>
    </edge>
    <edge id=":A1_5" function="internal">
        <lane id=":A1_5_0" index="0" disallow="custom1" speed="10.88" length="6.03" width="3.20" shape="-1.60,113.60 -0.89,107.62"/>
        <lane id=":A1_5_1" index="1" disallow="custom1" speed="10.36" length="5.01" width="3.20" shape="-1.60,113.60 -0.89,108.64"/>
    </edge>
    <edge id=":A1_7" function="internal">
        <lane id=":A1_7_0" index="0" disallow="custom1" speed="3.65" length="1.44" width="3.20" shape="-1.60,113.60 -0.80,112.40"/>
    </edge>
    <edge id=":A1_23" function="internal">
        <lane id=":A1_23_0" index="0" allow="custom1 custom2" speed="12.28" length="15.74" width="3.20" shape="-1.16,96.54 4.15,93.35 13.60,92.00"/>
    </edge>
    <edge id=":A1_24" function="internal">
        <lane id=":A1_24_0" index="0" disallow="custom1" speed="11.36" length="16.31" width="3.20" shape="-0.96,101.06 -0.20,99.80 5.55,96.35 13.60,95.20"/>
    </edge>
    <edge id=":A1_25" function="internal">
        <lane id=":A1_25_0" index="0" disallow="custom1" speed="10.88" length="21.12" width="3.20" shape="-0.89,107.62 -0.65,105.55 2.20,99.80 6.95,96.35 13.60,95.20"/>
    </edge>
    <edge id=":A1_26" function="internal">
        <lane id=":A1_26_0" index="0" disallow="custom1" speed="10.36" length="19.50" width="3.20" shape="-0.89,108.64 -0.65,106.95 2.20,102.20 6.95,99.35 13.60,98.40"/>
    </edge>
    <edge id=":A1_27" function="internal">
        <lane id=":A1_27_0" index="0" disallow="custom1" speed="3.65" length="3.23" width="3.20" shape="-0.80,112.40 0.00,112.00 0.80,112.40 1.60,113.60"/>
    </edge>
    <edge id=":A1_8" function="internal">
        <lane id=":A1_8_0" index="0" allow="custom1 custom2" speed="6.51" length="9.03" width="3.20" shape="13.60,108.00 11.15,108.35 9.40,109.40 8.35,111.15 8.00,113.60"/>
    </edge>
    <edge id=":A1_9" function="internal">
        <lane id=":A1_9_0" index="0" allow="custom1 custom2" speed="12.28" length="34.84" width="3.20" shape="13.60,108.00 4.15,106.65 -2.60,102.60 -6.65,95.85 -8.00,86.40"/>
    </edge>
    <edge id=":A1_10" function="internal">
        <lane id=":A1_10_0" index="0" disallow="custom1" speed="8.00" length="14.19" width="3.20" shape="13.60,104.80 9.75,105.35 7.00,107.00 5.35,109.75 4.80,113.60"/>
    </edge>
    <edge id=":A1_11" function="internal">
        <lane id=":A1_11_0" index="0" disallow="custom1" speed="11.36" length="29.67" width="3.20" shape="13.60,104.80 5.55,103.65 -0.20,100.20 -3.65,94.45 -4.80,86.40"/>
    </edge>
    <edge id=":A1_12" function="internal">
        <lane id=":A1_12_0" index="0" disallow="custom1" speed="9.26" length="19.35" width="3.20" shape="13.60,101.60 8.35,102.35 4.60,104.60 2.35,108.35 1.60,113.60"/>
    </edge>
    <edge id=":A1_13" function="internal">
        <lane id=":A1_13_0" index="0" disallow="custom1" speed="10.88" length="27.14" width="3.20" shape="13.60,101.60 5.55,100.65 -0.20,97.80 -3.65,93.05 -4.80,86.40"/>
        <lane id=":A1_13_1" index="1" disallow="custom1" speed="10.36" length="24.51" width="3.20" shape="13.60,101.60 6.95,100.65 2.20,97.80 -0.65,93.05 -1.60,86.40"/>
    </edge>
    <edge id=":A1_15" function="internal">
        <lane id=":A1_15_0" index="0" disallow="custom1" speed="3.65" length="1.44" width="3.20" shape="13.60,101.60 12.40,100.80"/>
    </edge>
    <edge id=":A1_28" function="internal">
        <lane id=":A1_28_0" index="0" disallow="custom1" speed="3.65" length="3.23" width="3.20" shape="12.40,100.80 12.00,100.00 12.40,99.20 13.60,98.40"/>
    </edge>
    <edge id=":A1_16" function="internal">
        <lane id=":A1_16_0" index="0" allow="custom1 custom2" speed="6.51" length="9.03" width="3.20" shape="8.00,86.40 8.35,88.85 9.40,90.60 11.15,91.65 13.60,92.00"/>
    </edge>
    <edge id=":A1_17" function="internal">
        <lane id=":A1_17_0" index="0" allow="custom1 custom2" speed="25.00" length="27.20" width="3.20" shape="8.00,86.40 8.00,113.60"/>
    </edge>
    <edge id=":A1_18" function="internal">
        <lane id=":A1_18_0" index="0" disallow="custom1" speed="8.00" length="4.07" width="3.20" shape="4.80,86.40 5.35,90.25 5.44,90.40"/>
    </edge>
    <edge id=":A1_19" function="internal">
        <lane id=":A1_19_0" index="0" disallow="custom1" speed="13.89" length="27.20" width="3.20" shape="4.80,86.40 4.80,113.60"/>
    </edge>
    <edge id=":A1_20" function="internal">
        <lane id=":A1_20_0" index="0" disallow="custom1" speed="9.26" length="5.01" width="3.20" shape="1.60,86.40 2.31,91.36"/>
    </edge>
    <edge id=":A1_21" function="internal">
        <lane id=":A1_21_0" index="0" disallow="custom1" speed="13.89" length="27.20" width="3.20" shape="1.60,86.40 1.60,113.60"/>
    </edge>
    <edge id=":A1_22" function="internal">
        <lane id=":A1_22_0" index="0" disallow="custom1" speed="3.65" length="1.44" width="3.20" shape="1.60,86.40 0.80,87.60"/>
    </edge>
    <edge id=":A1_29" function="internal">
        <lane id=":A1_29_0" index="0" disallow="custom1" speed="8.00" length="10.13" width="3.20" shape="5.44,90.40 7.00,93.00 9.75,94.65 13.60,95.20"/>
    </edge>
    <edge id=":A1_30" function="internal">
        <lane id=":A1_30_0" index="0" disallow="custom1" speed="9.26" length="14.34" width="3.20" shape="2.31,91.36 2.35,91.65 4.60,95.40 8.35,97.65 13.60,98.40"/>
    </edge>
    <edge id=":A1_31" function="internal">
        <lane id=":A1_31_0" index="0" disallow="custom1" speed="3.65" length="3.23" width="3.20" shape="0.80,87.60 0.00,88.00 -0.80,87.60 -1.60,86.40"/>
    </edge>
    <edge id=":A2_0" function="internal">
        <lane id=":A2_0_0" index="0" allow="custom1 custom2" speed="11.12" length="28.38" width="3.20" shape="9.60,208.00 1.90,206.90 -3.60,203.60 -6.90,198.10 -8.00,190.40"/>
        <lane id=":A2_0_1" index="1" disallow="custom1" speed="10.10" length="23.22" width="3.20" shape="9.60,204.80 3.30,203.90 -1.20,201.20 -3.90,196.70 -4.80,190.40"/>
        <lane id=":A2_0_2" index="2" disallow="custom1" speed="8.96" length="18.06" width="3.20" shape="9.60,201.60 4.70,200.90 1.20,198.80 -0.90,195.30 -1.60,190.40"/>
    </edge>
    <edge id=":A2_3" function="internal">
        <lane id=":A2_3_0" index="0" allow="custom1 custom2" speed="3.90" length="2.58" width="3.20" shape="8.00,190.40 8.10,191.10 8.40,191.60 8.90,191.90 9.60,192.00"/>
        <lane id=":A2_3_1" index="1" disallow="custom1" speed="6.08" length="7.74" width="3.20" shape="4.80,190.40 5.10,192.50 6.00,194.00 7.50,194.90 9.60,195.20"/>
        <lane id=":A2_3_2" index="2" disallow="custom1" speed="7.66" length="12.90" width="3.20" shape="1.60,190.40 2.10,193.90 3.60,196.40 6.10,197.90 9.60,198.40"/>
    </edge>
    <edge id=":B0_0" function="internal">
        <lane id=":B0_0_0" index="0" allow="custom1 custom2" speed="6.51" length="9.03" width="3.20" shape="92.00,13.60 91.65,11.15 90.60,9.40 88.85,8.35 86.40,8.00"/>
    </edge>
    <edge id=":B0_1" function="internal">
        <lane id=":B0_1_0" index="0" allow="custom1 custom2" speed="12.28" length="34.84" width="3.20" shape="92.00,13.60 93.35,4.15 97.40,-2.60 104.15,-6.65 113.60,-8.00"/>
    </edge>
    <edge id=":B0_2" function="internal">
        <lane id=":B0_2_0" index="0" disallow="custom1" speed="8.00" length="14.19" width="3.20" shape="95.20,13.60 94.65,9.75 93.00,7.00 90.25,5.35 86.40,4.80"/>
    </edge>
    <edge id=":B0_3" function="internal">
        <lane id=":B0_3_0" index="0" disallow="custom1" speed="10.88" length="27.14" width="3.20" shape="95.20,13.60 96.35,6.95 99.80,2.20 105.55,-0.65 113.60,-1.60"/>
    </edge>
    <edge id=":B0_4" function="internal">
        <lane id=":B0_4_0" index="0" disallow="custom1" speed="9.26" length="19.35" width="3.20" shape="98.40,13.60 97.65,8.35 95.40,4.60 91.65,2.35 86.40,1.60"/>
    </edge>
    <edge id=":B0_5" function="internal">
        <lane id=":B0_5_0" index="0" disallow="custom1" speed="10.88" length="27.14" width="3.20" shape="98.40,13.60 99.35,5.55 102.20,-0.20 106.95,-3.65 113.60,-4.80"/>
        <lane id=":B0_5_1" index="1" disallow="custom1" speed="10.36" length="24.51" width="3.20" shape="98.40,13.60 99.35,6.95 102.20,2.20 106.95,-0.65 113.60,-1.60"/>
    </edge>
    <edge id=":B0_7" function="internal">
        <lane id=":B0_7_0" index="0" disallow="custom1" speed="3.65" length="1.44" width="3.20" shape="98.40,13.60 99.20,12.40"/>
    </edge>
    <edge id=":B0_23" function="internal">
        <lane id=":B0_23_0" index="0" disallow="custom1" speed="3.65" length="3.23" width="3.20" shape="99.20,12.40 100.00,12.00 100.80,12.40 101.60,13.60"/>
    </edge>
    <edge id=":B0_8" function="internal">
        <lane id=":B0_8_0" index="0" allow="custom1 custom2" speed="6.51" length="9.03" width="3.20" shape="113.60,8.00 111.15,8.35 109.40,9.40 108.35,11.15 108.00,13.60"/>
    </edge>
    <edge id=":B0_9" function="internal">
        <lane id=":B0_9_0" index="0" allow="custom1 custom2" speed="25.00" length="27.20" width="3.20" shape="113.60,8.00 86.40,8.00"/>
    </edge>
    <edge id=":B0_10" function="internal">
        <lane id=":B0_10_0" index="0" disallow="custom1" speed="8.00" length="4.07" width="3.20" shape="113.60,4.80 109.75,5.35 109.60,5.44"/>
    </edge>
    <edge id=":B0_11" function="internal">
        <lane id=":B0_11_0" index="0" disallow="custom1" speed="13.89" length="27.20" width="3.20" shape="113.60,4.80 86.40,4.80"/>
    </edge>
    <edge id=":B0_12" function="internal">
        <lane id=":B0_12_0" index="0" disallow="custom1" speed="9.26" length="5.01" width="3.20" shape="113.60,1.60 108.64,2.31"/>
    </edge>
    <edge id=":B0_13" function="internal">
        <lane id=":B0_13_0" index="0" disallow="custom1" speed="13.89" length="27.20" width="3.20" shape="113.60,1.60 86.40,1.60"/>
    </edge>
    <edge id=":B0_14" function="internal">
        <lane id=":B0_14_0" index="0" disallow="custom1" speed="3.65" length="1.44" width="3.20" shape="113.60,1.60 112.40,0.80"/>
    </edge>
    <edge id=":B0_24" function="internal">
        <lane id=":B0_24_0" index="0" disallow="custom1" speed="8.00" length="10.13" width="3.20" shape="109.60,5.44 107.00,7.00 105.35,9.75 104.80,13.60"/>
    </edge>
    <edge id=":B0_25" function="internal">
        <lane id=":B0_25_0" index="0" disallow="custom1" speed="9.26" length="14.34" width="3.20" shape="108.64,2.31 108.35,2.35 104.60,4.60 102.35,8.35 101.60,13.60"/>
    </edge>
    <edge id=":B0_26" function="internal">
        <lane id=":B0_26_0" index="0" disallow="custom1" speed="3.65" length="3.23" width="3.20" shape="112.40,0.80 112.00,0.00 112.40,-0.80 113.60,-1.60"/>
    </edge>
    <edge id=":B0_15" function="internal">
        <lane id=":B0_15_0" index="0" allow="custom1 custom2" speed="25.00" length="27.20" width="3.20" shape="86.40,-8.00 113.60,-8.00"/>
    </edge>
    <edge id=":B0_16" function="internal">
        <lane id=":B0_16_0" index="0" allow="custom1 custom2" speed="12.28" length="19.10" width="3.20" shape="86.40,-8.00 95.85,-6.65 102.60,-2.60 103.46,-1.16"/>
    </edge>
    <edge id=":B0_17" function="internal">
        <lane id=":B0_17_0" index="0" disallow="custom1" speed="13.89" length="27.20" width="3.20" shape="86.40,-4.80 113.60,-4.80"/>
    </edge>
    <edge id=":B0_18" function="internal">
        <lane id=":B0_18_0" index="0" disallow="custom1" speed="10.88" length="11.30" width="3.20" shape="86.40,-4.80 93.05,-3.65 96.73,-0.97"/>
    </edge>
    <edge id=":B0_19" function="internal">
        <lane id=":B0_19_0" index="0" disallow="custom1" speed="13.89" length="27.20" width="3.20" shape="86.40,-1.60 113.60,-1.60"/>
    </edge>
    <edge id=":B0_20" function="internal">
        <lane id=":B0_20_0" index="0" disallow="custom1" speed="10.88" length="6.03" width="3.20" shape="86.40,-1.60 92.38,-0.89"/>
        <lane id=":B0_20_1" index="1" disallow="custom1" speed="10.36" length="5.01" width="3.20" shape="86.40,-1.60 91.36,-0.89"/>
    </edge>
    <edge id=":B0_22" function="internal">
        <lane id=":B0_22_0" index="0" disallow="custom1" speed="3.65" length="1.44" width="3.20" shape="86.40,-1.60 87.60,-0.80"/>
    </edge>
    <edge id=":B0_27" function="internal">
        <lane id=":B0_27_0" index="0" allow="custom1 custom2" speed="12.28" length="15.74" width="3.20" shape="103.46,-1.16 106.65,4.15 108.00,13.60"/>
    </edge>
    <edge id=":B0_28" function="internal">
        <lane id=":B0_28_0" index="0" disallow="custom1" speed="10.88" length="15.84" width="3.20" shape="96.73,-0.97 97.80,-0.20 100.65,5.55 101.60,13.60"/>
    </edge>
    <edge id=":B0_29" function="internal">
        <lane id=":B0_29_0" index="0" disallow="custom1" speed="10.88" length="21.12" width="3.20" shape="92.38,-0.89 94.45,-0.65 100.20,2.20 103.65,6.95 104.80,13.60"/>
    </edge>
    <edge id=":B0_30" function="internal">
        <lane id=":B0_30_0" index="0" disallow="custom1" speed="10.36" length="19.50" width="3.20" shape="91.36,-0.89 93.05,-0.65 97.80,2.20 100.65,6.95 101.60,13.60"/>
    </edge>
    <edge id=":B0_31" function="internal">
        <lane id=":B0_31_0" index="0" disallow="custom1" speed="3.65" length="3.23" width="3.20" shape="87.60,-0.80 88.00,0.00 87.60,0.80 86.40,1.60"/>
    </edge>
    <edge id=":B1_0" function="internal">
        <lane id=":B1_0_0" index="0" allow="custom1 custom2" speed="6.51" length="9.03" width="3.20" shape="92.00,113.60 91.65,111.15 90.60,109.40 88.85,108.35 86.40,108.00"/>
    </edge>
    <edge id=":B1_1" function="internal">
        <lane id=":B1_1_0" index="0" allow="custom1 custom2" speed="25.00" length="27.20" width="3.20" shape="92.00,113.60 92.00,86.40"/>
    </edge>
    <edge id=":B1_2" function="internal">
        <lane id=":B1_2_0" index="0" allow="custom1 custom2" speed="11.87" length="5.83" width="3.20" shape="92.00,113.60 93.67,108.02"/>
    </edge>
    <edge id=":B1_3" function="internal">
        <lane id=":B1_3_0" index="0" disallow="custom1" speed="8.00" length="4.07" width="3.20" shape="95.20,113.60 94.65,109.75 94.56,109.60"/>
    </edge>
    <edge id=":B1_4" function="internal">
        <lane id=":B1_4_0" index="0" disallow="custom1" speed="13.89" length="27.20" width="3.20" shape="95.20,113.60 95.20,86.40"/>
    </edge>
    <edge id=":B1_5" function="internal">
        <lane id=":B1_5_0" index="0" disallow="custom1" speed="11.07" length="8.84" width="3.20" shape="95.20,113.60 96.86,107.07 98.09,105.37"/>
    </edge>
    <edge id=":B1_6" function="internal">
        <lane id=":B1_6_0" index="0" disallow="custom1" speed="9.26" length="5.01" width="3.20" shape="98.40,113.60 97.69,108.64"/>
    </edge>
    <edge id=":B1_7" function="internal">
        <lane id=":B1_7_0" index="0" disallow="custom1" speed="13.89" length="27.20" width="3.20" shape="98.40,113.60 98.40,86.40"/>
    </edge>
    <edge id=":B1_8" function="internal">
        <lane id=":B1_8_0" index="0" disallow="custom1" speed="10.10" length="2.96" width="3.20" shape="98.40,113.60 99.13,110.73"/>
    </edge>
    <edge id=":B1_9" function="internal">
        <lane id=":B1_9_0" index="0" disallow="custom1" speed="3.65" length="1.44" width="3.20" shape="98.40,113.60 99.20,112.40"/>
    </edge>
    <edge id=":B1_43" function="internal">
        <lane id=":B1_43_0" index="0" allow="custom1 custom2" speed="11.87" length="26.67" width="3.20" shape="93.67,108.02 94.12,106.47 99.47,99.47 106.47,94.12 113.60,92.00"/>
    </edge>
    <edge id=":B1_44" function="internal">
        <lane id=":B1_44_0" index="0" disallow="custom1" speed="8.00" length="10.13" width="3.20" shape="94.56,109.60 93.00,107.00 90.25,105.35 86.40,104.80"/>
    </edge>
    <edge id=":B1_45" function="internal">
        <lane id=":B1_45_0" index="0" disallow="custom1" speed="11.07" length="19.27" width="3.20" shape="98.09,105.37 101.15,101.15 107.07,96.86 113.60,95.20"/>
    </edge>
    <edge id=":B1_46" function="internal">
        <lane id=":B1_46_0" index="0" disallow="custom1" speed="9.26" length="14.34" width="3.20" shape="97.69,108.64 97.65,108.35 95.40,104.60 91.65,102.35 86.40,101.60"/>
    </edge>
    <edge id=":B1_47" function="internal">
        <lane id=":B1_47_0" index="0" disallow="custom1" speed="10.10" length="20.25" width="3.20" shape="99.13,110.73 99.77,108.20 103.31,103.31 108.20,99.77 113.60,98.40"/>
    </edge>
    <edge id=":B1_48" function="internal">
        <lane id=":B1_48_0" index="0" disallow="custom1" speed="3.65" length="3.23" width="3.20" shape="99.20,112.40 100.00,112.00 100.80,112.40 101.60,113.60"/>
    </edge>
    <edge id=":B1_10" function="internal">
        <lane id=":B1_10_0" index="0" allow="custom1 custom2" speed="6.51" length="9.03" width="3.20" shape="113.60,108.00 111.15,108.35 109.40,109.40 108.35,111.15 108.00,113.60"/>
    </edge>
    <edge id=":B1_11" function="internal">
        <lane id=":B1_11_0" index="0" allow="custom1 custom2" speed="25.00" length="27.20" width="3.20" shape="113.60,108.00 86.40,108.00"/>
    </edge>
    <edge id=":B1_12" function="internal">
        <lane id=":B1_12_0" index="0" allow="custom1 custom2" speed="11.87" length="15.62" width="3.20" shape="113.60,108.00 106.47,105.88 99.97,100.92"/>
    </edge>
    <edge id=":B1_13" function="internal">
        <lane id=":B1_13_0" index="0" allow="custom1 custom2" speed="7.00" length="10.76" width="3.20" shape="113.60,108.00 107.60,104.00 106.02,100.83"/>
    </edge>
    <edge id=":B1_14" function="internal">
        <lane id=":B1_14_0" index="0" disallow="custom1" speed="8.00" length="4.07" width="3.20" shape="113.60,104.80 109.75,105.35 109.60,105.44"/>
    </edge>
    <edge id=":B1_15" function="internal">
        <lane id=":B1_15_0" index="0" disallow="custom1" speed="13.89" length="27.20" width="3.20" shape="113.60,104.80 86.40,104.80"/>
    </edge>
    <edge id=":B1_16" function="internal">
        <lane id=":B1_16_0" index="0" disallow="custom1" speed="11.07" length="10.51" width="3.20" shape="113.60,104.80 107.07,103.14 104.01,100.93"/>
    </edge>
    <edge id=":B1_17" function="internal">
        <lane id=":B1_17_0" index="0" disallow="custom1" speed="9.26" length="5.01" width="3.20" shape="113.60,101.60 108.64,102.31"/>
    </edge>
    <edge id=":B1_18" function="internal">
        <lane id=":B1_18_0" index="0" disallow="custom1" speed="13.89" length="27.20" width="3.20" shape="113.60,101.60 86.40,101.60"/>
    </edge>
    <edge id=":B1_19" function="internal">
        <lane id=":B1_19_0" index="0" disallow="custom1" speed="10.10" length="2.96" width="3.20" shape="113.60,101.60 110.73,100.87"/>
    </edge>
    <edge id=":B1_20" function="internal">
        <lane id=":B1_20_0" index="0" disallow="custom1" speed="3.65" length="1.44" width="3.20" shape="113.60,101.60 112.40,100.80"/>
    </edge>
    <edge id=":B1_49" function="internal">
        <lane id=":B1_49_0" index="0" allow="custom1 custom2" speed="11.87" length="16.88" width="3.20" shape="99.97,100.92 99.47,100.53 94.12,93.53 92.00,86.40"/>
    </edge>
    <edge id=":B1_50" function="internal">
        <lane id=":B1_50_0" index="0" allow="custom1 custom2" speed="7.00" length="12.61" width="3.20" shape="106.02,100.83 105.60,100.00 107.60,96.00 113.60,92.00"/>
    </edge>
    <edge id=":B1_51" function="internal">
        <lane id=":B1_51_0" index="0" disallow="custom1" speed="8.00" length="10.13" width="3.20" shape="109.60,105.44 107.00,107.00 105.35,109.75 104.80,113.60"/>
    </edge>
    <edge id=":B1_52" function="internal">
        <lane id=":B1_52_0" index="0" disallow="custom1" speed="11.07" length="17.59" width="3.20" shape="104.01,100.93 101.15,98.85 96.86,92.93 95.20,86.40"/>
    </edge>
    <edge id=":B1_53" function="internal">
        <lane id=":B1_53_0" index="0" disallow="custom1" speed="9.26" length="14.34" width="3.20" shape="108.64,102.31 108.35,102.35 104.60,104.60 102.35,108.35 101.60,113.60"/>
    </edge>
    <edge id=":B1_54" function="internal">
        <lane id=":B1_54_0" index="0" disallow="custom1" speed="10.10" length="20.25" width="3.20" shape="110.73,100.87 108.20,100.23 103.31,96.69 99.77,91.80 98.40,86.40"/>
    </edge>
    <edge id=":B1_55" function="internal">
        <lane id=":B1_55_0" index="0" disallow="custom1" speed="3.65" length="3.23" width="3.20" shape="112.40,100.80 112.00,100.00 112.40,99.20 113.60,98.40"/>
    </edge>
    <edge id=":B1_21" function="internal">
        <lane id=":B1_21_0" index="0" allow="custom1 custom2" speed="6.51" length="9.03" width="3.20" shape="108.00,86.40 108.35,88.85 109.40,90.60 111.15,91.65 113.60,92.00"/>
    </edge>
    <edge id=":B1_22" function="internal">
        <lane id=":B1_22_0" index="0" allow="custom1 custom2" speed="25.00" length="27.20" width="3.20" shape="108.00,86.40 108.00,113.60"/>
    </edge>
    <edge id=":B1_23" function="internal">
        <lane id=":B1_23_0" index="0" allow="custom1 custom2" speed="11.87" length="5.83" width="3.20" shape="108.00,86.40 106.33,91.98"/>
    </edge>
    <edge id=":B1_24" function="internal">
        <lane id=":B1_24_0" index="0" allow="custom1 custom2" speed="7.00" length="10.76" width="3.20" shape="108.00,86.40 104.00,92.40 100.83,93.98"/>
    </edge>
    <edge id=":B1_25" function="internal">
        <lane id=":B1_25_0" index="0" disallow="custom1" speed="8.00" length="4.07" width="3.20" shape="104.80,86.40 105.35,90.25 105.44,90.40"/>
    </edge>
    <edge id=":B1_26" function="internal">
        <lane id=":B1_26_0" index="0" disallow="custom1" speed="13.89" length="27.20" width="3.20" shape="104.80,86.40 104.80,113.60"/>
    </edge>
    <edge id=":B1_27" function="internal">
        <lane id=":B1_27_0" index="0" disallow="custom1" speed="11.07" length="8.84" width="3.20" shape="104.80,86.40 103.14,92.93 101.91,94.63"/>
    </edge>
    <edge id=":B1_28" function="internal">
        <lane id=":B1_28_0" index="0" disallow="custom1" speed="9.26" length="5.01" width="3.20" shape="101.60,86.40 102.31,91.36"/>
    </edge>
    <edge id=":B1_29" function="internal">
        <lane id=":B1_29_0" index="0" disallow="custom1" speed="13.89" length="27.20" width="3.20" shape="101.60,86.40 101.60,113.60"/>
    </edge>
    <edge id=":B1_30" function="internal">
        <lane id=":B1_30_0" index="0" disallow="custom1" speed="10.10" length="2.96" width="3.20" shape="101.60,86.40 100.87,89.27"/>
    </edge>
    <edge id=":B1_31" function="internal">
        <lane id=":B1_31_0" index="0" disallow="custom1" speed="3.65" length="1.44" width="3.20" shape="101.60,86.40 100.80,87.60"/>
    </edge>
    <edge id=":B1_56" function="internal">
        <lane id=":B1_56_0" index="0" allow="custom1 custom2" speed="11.87" length="26.67" width="3.20" shape="106.33,91.98 105.88,93.53 100.53,100.53 93.53,105.88 86.40,108.00"/>
    </edge>
    <edge id=":B1_57" function="internal">
        <lane id=":B1_57_0" index="0" allow="custom1 custom2" speed="7.00" length="12.61" width="3.20" shape="100.83,93.98 100.00,94.40 96.00,92.40 92.00,86.40"/>
    </edge>
    <edge id=":B1_58" function="internal">
        <lane id=":B1_58_0" index="0" disallow="custom1" speed="8.00" length="10.13" width="3.20" shape="105.44,90.40 107.00,93.00 109.75,94.65 113.60,95.20"/>
    </edge>
    <edge id=":B1_59" function="internal">
        <lane id=":B1_59_0" index="0" disallow="custom1" speed="11.07" length="19.27" width="3.20" shape="101.91,94.63 98.85,98.85 92.93,103.14 86.40,104.80"/>
    </edge>
    <edge id=":B1_60" function="internal">
        <lane id=":B1_60_0" index="0" disallow="custom1" speed="9.26" length="14.34" width="3.20" shape="102.31,91.36 102.35,91.65 104.60,95.40 108.35,97.65 113.60,98.40"/>
    </edge>
    <edge id=":B1_61" function="internal">
        <lane id=":B1_61_0" index="0" disallow="custom1" speed="10.10" length="20.25" width="3.20" shape="100.87,89.27 100.23,91.80 96.69,96.69 91.80,100.23 86.40,101.60"/>
    </edge>
    <edge id=":B1_62" function="internal">
        <lane id=":B1_62_0" index="0" disallow="custom1" speed="3.65" length="3.23" width="3.20" shape="100.80,87.60 100.00,88.00 99.20,87.60 98.40,86.40"/>
    </edge>
    <edge id=":B1_32" function="internal">
        <lane id=":B1_32_0" index="0" allow="custom1 custom2" speed="6.51" length="9.03" width="3.20" shape="86.40,92.00 88.85,91.65 90.60,90.60 91.65,88.85 92.00,86.40"/>
    </edge>
    <edge id=":B1_33" function="internal">
        <lane id=":B1_33_0" index="0" allow="custom1 custom2" speed="25.00" length="27.20" width="3.20" shape="86.40,92.00 113.60,92.00"/>
    </edge>
    <edge id=":B1_34" function="internal">
        <lane id=":B1_34_0" index="0" allow="custom1 custom2" speed="11.87" length="15.62" width="3.20" shape="86.40,92.00 93.53,94.12 100.03,99.08"/>
    </edge>
    <edge id=":B1_35" function="internal">
        <lane id=":B1_35_0" index="0" allow="custom1 custom2" speed="7.00" length="10.76" width="3.20" shape="86.40,92.00 92.40,96.00 93.98,99.17"/>
    </edge>
    <edge id=":B1_36" function="internal">
        <lane id=":B1_36_0" index="0" disallow="custom1" speed="8.00" length="4.07" width="3.20" shape="86.40,95.20 90.25,94.65 90.40,94.56"/>
    </edge>
    <edge id=":B1_37" function="internal">
        <lane id=":B1_37_0" index="0" disallow="custom1" speed="13.89" length="27.20" width="3.20" shape="86.40,95.20 113.60,95.20"/>
    </edge>
    <edge id=":B1_38" function="internal">
        <lane id=":B1_38_0" index="0" disallow="custom1" speed="11.07" length="10.51" width="3.20" shape="86.40,95.20 92.93,96.86 95.99,99.07"/>
    </edge>
    <edge id=":B1_39" function="internal">
        <lane id=":B1_39_0" index="0" disallow="custom1" speed="9.26" length="5.01" width="3.20" shape="86.40,98.40 91.36,97.69"/>
    </edge>
    <edge id=":B1_40" function="internal">
        <lane id=":B1_40_0" index="0" disallow="custom1" speed="13.89" length="27.20" width="3.20" shape="86.40,98.40 113.60,98.40"/>
    </edge>
    <edge id=":B1_41" function="internal">
        <lane id=":B1_41_0" index="0" disallow="custom1" speed="10.10" length="2.96" width="3.20" shape="86.40,98.40 89.27,99.13"/>
    </edge>
    <edge id=":B1_42" function="internal">
        <lane id=":B1_42_0" index="0" disallow="custom1" speed="3.65" length="1.44" width="3.20" shape="86.40,98.40 87.60,99.20"/>
    </edge>
    <edge id=":B1_63" function="internal">
        <lane id=":B1_63_0" index="0" allow="custom1 custom2" speed="11.87" length="16.88" width="3.20" shape="100.03,99.08 100.53,99.47 105.88,106.47 108.00,113.60"/>
    </edge>
    <edge id=":B1_64" function="internal">
        <lane id=":B1_64_0" index="0" allow="custom1 custom2" speed="7.00" length="12.61" width="3.20" shape="93.98,99.17 94.40,100.00 92.40,104.00 86.40,108.00"/>
    </edge>
    <edge id=":B1_65" function="internal">