<?xml version="1.0" encoding="UTF-8"?>

<!-- generated on 2023-12-12 15:33:18 by Eclipse SUMO netedit Version 1.18.0
<configuration xmlns:xsi="http://www.w3.org/2001/XMLSchema-instance" xsi:noNamespaceSchemaLocation="http://sumo.dlr.de/xsd/neteditConfiguration.xsd">

    <input>
        <sumo-net-file value="Grid1.net.xml"/>
    </input>

    <output>
        <output-file value="Grid1.net.xml"/>
    </output>

    <processing>
        <geometry.min-radius.fix.railways value="false"/>
        <geometry.max-grade.fix value="false"/>
        <offset.disable-normalization value="true"/>
        <lefthand value="0"/>
    </processing>

    <junctions>
        <no-internal-links value="true"/>
        <no-turnarounds value="true"/>
        <junctions.corner-detail value="5"/>
        <junctions.limit-turn-speed value="5.50"/>
        <rectangular-lane-cut value="0"/>
    </junctions>

    <pedestrian>
        <walkingareas value="0"/>
    </pedestrian>speed="19.44"

</configuration>
-->

<net version="1.16" junctionCornerDetail="5" limitTurnSpeed="5.50" xmlns:xsi="http://www.w3.org/2001/XMLSchema-instance" xsi:noNamespaceSchemaLocation="http://sumo.dlr.de/xsd/net_file.xsd">

    <location netOffset="0.00,0.00" convBoundary="0.00,0.00,400.00,200.00" origBoundary="0.00,0.00,400.00,200.00" projParameter="!"/>

    <edge id="A0A1" from="A0" to="A1" priority="-1">
        <lane id="A0A1_0" index="0" speed="13.89" length="100.00" width="3.20" shape="8.00,9.60 8.00,86.40"/>
        <lane id="A0A1_1" index="1" speed="13.89" length="100.00" width="3.20" shape="4.80,9.60 4.80,86.40"/>
        <lane id="A0A1_2" index="2" allow="custom1" speed="19.44" length="100.00" width="3.20" shape="1.60,9.60 1.60,86.40"/>
    </edge>
    <edge id="A0B0" from="A0" to="B0" priority="-1">
        <lane id="A0B0_0" index="0" speed="13.89" length="100.00" width="3.20" shape="9.60,-8.00 86.40,-8.00"/>
        <lane id="A0B0_1" index="1" speed="13.89" length="100.00" width="3.20" shape="9.60,-4.80 86.40,-4.80"/>
        <lane id="A0B0_2" index="2" allow="custom1" speed="19.44" length="100.00" width="3.20" shape="9.60,-1.60 86.40,-1.60"/>
    </edge>
    <edge id="A1A0" from="A1" to="A0" priority="-1">
        <lane id="A1A0_0" index="0" speed="13.89" length="100.00" width="3.20" shape="-8.00,86.40 -8.00,9.60"/>
        <lane id="A1A0_1" index="1" speed="13.89" length="100.00" width="3.20" shape="-4.80,86.40 -4.80,9.60"/>
        <lane id="A1A0_2" index="2" allow="custom1" speed="19.44" length="100.00" width="3.20" shape="-1.60,86.40 -1.60,9.60"/>
    </edge>
    <edge id="A1A2" from="A1" to="A2" priority="-1">
        <lane id="A1A2_0" index="0" speed="13.89" length="100.00" width="3.20" shape="8.00,113.60 8.00,190.40"/>
        <lane id="A1A2_1" index="1" speed="13.89" length="100.00" width="3.20" shape="4.80,113.60 4.80,190.40"/>
        <lane id="A1A2_2" index="2" allow="custom1" speed="19.44" length="100.00" width="3.20" shape="1.60,113.60 1.60,190.40"/>
    </edge>
    <edge id="A1B1" from="A1" to="B1" priority="-1">
        <lane id="A1B1_0" index="0" speed="13.89" length="100.00" width="3.20" shape="13.60,92.00 86.40,92.00"/>
        <lane id="A1B1_1" index="1" speed="13.89" length="100.00" width="3.20" shape="13.60,95.20 86.40,95.20"/>
        <lane id="A1B1_2" index="2" allow="custom1" speed="19.44" length="100.00" width="3.20" shape="13.60,98.40 86.40,98.40"/>
    </edge>
    <edge id="A2A1" from="A2" to="A1" priority="-1">
        <lane id="A2A1_0" index="0" speed="13.89" length="100.00" width="3.20" shape="-8.00,190.40 -8.00,113.60"/>
        <lane id="A2A1_1" index="1" speed="13.89" length="100.00" width="3.20" shape="-4.80,190.40 -4.80,113.60"/>
        <lane id="A2A1_2" index="2" allow="custom1" speed="19.44" length="100.00" width="3.20" shape="-1.60,190.40 -1.60,113.60"/>
    </edge>
    <edge id="A2B2" from="A2" to="B2" priority="-1">
        <lane id="A2B2_0" index="0" speed="13.89" length="100.00" width="3.20" shape="9.60,192.00 86.40,192.00"/>
        <lane id="A2B2_1" index="1" speed="13.89" length="100.00" width="3.20" shape="9.60,195.20 86.40,195.20"/>
        <lane id="A2B2_2" index="2" allow="custom1" speed="19.44" length="100.00" width="3.20" shape="9.60,198.40 86.40,198.40"/>
    </edge>
    <edge id="B0A0" from="B0" to="A0" priority="-1">
        <lane id="B0A0_0" index="0" speed="13.89" length="100.00" width="3.20" shape="86.40,8.00 9.60,8.00"/>
        <lane id="B0A0_1" index="1" speed="13.89" length="100.00" width="3.20" shape="86.40,4.80 9.60,4.80"/>
        <lane id="B0A0_2" index="2" allow="custom1" speed="19.44" length="100.00" width="3.20" shape="86.40,1.60 9.60,1.60"/>
    </edge>
    <edge id="B0B1" from="B0" to="B1" priority="-1">
        <lane id="B0B1_0" index="0" speed="13.89" length="100.00" width="3.20" shape="108.00,13.60 108.00,86.40"/>
        <lane id="B0B1_1" index="1" speed="13.89" length="100.00" width="3.20" shape="104.80,13.60 104.80,86.40"/>
        <lane id="B0B1_2" index="2" allow="custom1" speed="19.44" length="100.00" width="3.20" shape="101.60,13.60 101.60,86.40"/>
    </edge>
    <edge id="B0C0" from="B0" to="C0" priority="-1">
        <lane id="B0C0_0" index="0" speed="13.89" length="100.00" width="3.20" shape="113.60,-8.00 186.40,-8.00"/>
        <lane id="B0C0_1" index="1" speed="13.89" length="100.00" width="3.20" shape="113.60,-4.80 186.40,-4.80"/>
        <lane id="B0C0_2" index="2" allow="custom1" speed="19.44" length="100.00" width="3.20" shape="113.60,-1.60 186.40,-1.60"/>
    </edge>
    <edge id="B1A1" from="B1" to="A1" priority="-1">
        <lane id="B1A1_0" index="0" speed="13.89" length="100.00" width="3.20" shape="86.40,108.00 13.60,108.00"/>
        <lane id="B1A1_1" index="1" speed="13.89" length="100.00" width="3.20" shape="86.40,104.80 13.60,104.80"/>
        <lane id="B1A1_2" index="2" allow="custom1" speed="19.44" length="100.00" width="3.20" shape="86.40,101.60 13.60,101.60"/>
    </edge>
    <edge id="B1B0" from="B1" to="B0" priority="-1">
        <lane id="B1B0_0" index="0" speed="13.89" length="100.00" width="3.20" shape="92.00,86.40 92.00,13.60"/>
        <lane id="B1B0_1" index="1" speed="13.89" length="100.00" width="3.20" shape="95.20,86.40 95.20,13.60"/>
        <lane id="B1B0_2" index="2" allow="custom1" speed="19.44" length="100.00" width="3.20" shape="98.40,86.40 98.40,13.60"/>
    </edge>
    <edge id="B1B2" from="B1" to="B2" priority="-1">
        <lane id="B1B2_0" index="0" speed="13.89" length="100.00" width="3.20" shape="108.00,113.60 108.00,186.40"/>
        <lane id="B1B2_1" index="1" speed="13.89" length="100.00" width="3.20" shape="104.80,113.60 104.80,186.40"/>
        <lane id="B1B2_2" index="2" allow="custom1" speed="19.44" length="100.00" width="3.20" shape="101.60,113.60 101.60,186.40"/>
    </edge>
    <edge id="B1C1" from="B1" to="C1" priority="-1">
        <lane id="B1C1_0" index="0" speed="13.89" length="100.00" width="3.20" shape="113.60,92.00 186.40,92.00"/>
        <lane id="B1C1_1" index="1" speed="13.89" length="100.00" width="3.20" shape="113.60,95.20 186.40,95.20"/>
        <lane id="B1C1_2" index="2" allow="custom1" speed="19.44" length="100.00" width="3.20" shape="113.60,98.40 186.40,98.40"/>
    </edge>
    <edge id="B2A2" from="B2" to="A2" priority="-1">
        <lane id="B2A2_0" index="0" speed="13.89" length="100.00" width="3.20" shape="86.40,208.00 9.60,208.00"/>
        <lane id="B2A2_1" index="1" speed="13.89" length="100.00" width="3.20" shape="86.40,204.80 9.60,204.80"/>
        <lane id="B2A2_2" index="2" allow="custom1" speed="19.44" length="100.00" width="3.20" shape="86.40,201.60 9.60,201.60"/>
    </edge>
    <edge id="B2B1" from="B2" to="B1" priority="-1">
        <lane id="B2B1_0" index="0" speed="13.89" length="100.00" width="3.20" shape="92.00,186.40 92.00,113.60"/>
        <lane id="B2B1_1" index="1" speed="13.89" length="100.00" width="3.20" shape="95.20,186.40 95.20,113.60"/>
        <lane id="B2B1_2" index="2" allow="custom1" speed="19.44" length="100.00" width="3.20" shape="98.40,186.40 98.40,113.60"/>
    </edge>
    <edge id="B2C2" from="B2" to="C2" priority="-1">
        <lane id="B2C2_0" index="0" speed="13.89" length="100.00" width="3.20" shape="113.60,192.00 186.40,192.00"/>
        <lane id="B2C2_1" index="1" speed="13.89" length="100.00" width="3.20" shape="113.60,195.20 186.40,195.20"/>
        <lane id="B2C2_2" index="2" allow="custom1" speed="19.44" length="100.00" width="3.20" shape="113.60,198.40 186.40,198.40"/>
    </edge>
    <edge id="C0B0" from="C0" to="B0" priority="-1">
        <lane id="C0B0_0" index="0" speed="13.89" length="100.00" width="3.20" shape="186.40,8.00 113.60,8.00"/>
        <lane id="C0B0_1" index="1" speed="13.89" length="100.00" width="3.20" shape="186.40,4.80 113.60,4.80"/>
        <lane id="C0B0_2" index="2" allow="custom1" speed="19.44" length="100.00" width="3.20" shape="186.40,1.60 113.60,1.60"/>
    </edge>
    <edge id="C0C1" from="C0" to="C1" priority="-1">
        <lane id="C0C1_0" index="0" speed="13.89" length="100.00" width="3.20" shape="208.00,13.60 208.00,86.40"/>
        <lane id="C0C1_1" index="1" speed="13.89" length="100.00" width="3.20" shape="204.80,13.60 204.80,86.40"/>
        <lane id="C0C1_2" index="2" allow="custom1" speed="19.44" length="100.00" width="3.20" shape="201.60,13.60 201.60,86.40"/>
    </edge>
    <edge id="C0D0" from="C0" to="D0" priority="-1">
        <lane id="C0D0_0" index="0" speed="13.89" length="100.00" width="3.20" shape="213.60,-8.00 286.40,-8.00"/>
        <lane id="C0D0_1" index="1" speed="13.89" length="100.00" width="3.20" shape="213.60,-4.80 286.40,-4.80"/>
        <lane id="C0D0_2" index="2" allow="custom1" speed="19.44" length="100.00" width="3.20" shape="213.60,-1.60 286.40,-1.60"/>
    </edge>
    <edge id="C1B1" from="C1" to="B1" priority="-1">
        <lane id="C1B1_0" index="0" speed="13.89" length="100.00" width="3.20" shape="186.40,108.00 113.60,108.00"/>
        <lane id="C1B1_1" index="1" speed="13.89" length="100.00" width="3.20" shape="186.40,104.80 113.60,104.80"/>
        <lane id="C1B1_2" index="2" allow="custom1" speed="19.44" length="100.00" width="3.20" shape="186.40,101.60 113.60,101.60"/>
    </edge>
    <edge id="C1C0" from="C1" to="C0" priority="-1">
        <lane id="C1C0_0" index="0" speed="13.89" length="100.00" width="3.20" shape="192.00,86.40 192.00,13.60"/>
        <lane id="C1C0_1" index="1" speed="13.89" length="100.00" width="3.20" shape="195.20,86.40 195.20,13.60"/>
        <lane id="C1C0_2" index="2" allow="custom1" speed="19.44" length="100.00" width="3.20" shape="198.40,86.40 198.40,13.60"/>
    </edge>
    <edge id="C1C2" from="C1" to="C2" priority="-1">
        <lane id="C1C2_0" index="0" speed="13.89" length="100.00" width="3.20" shape="208.00,113.60 208.00,186.40"/>
        <lane id="C1C2_1" index="1" speed="13.89" length="100.00" width="3.20" shape="204.80,113.60 204.80,186.40"/>
        <lane id="C1C2_2" index="2" allow="custom1" speed="19.44" length="100.00" width="3.20" shape="201.60,113.60 201.60,186.40"/>
    </edge>
    <edge id="C1D1" from="C1" to="D1" priority="-1">
        <lane id="C1D1_0" index="0" speed="13.89" length="100.00" width="3.20" shape="213.60,92.00 286.40,92.00"/>
        <lane id="C1D1_1" index="1" speed="13.89" length="100.00" width="3.20" shape="213.60,95.20 286.40,95.20"/>
        <lane id="C1D1_2" index="2" allow="custom1" speed="19.44" length="100.00" width="3.20" shape="213.60,98.40 286.40,98.40"/>
    </edge>
    <edge id="C2B2" from="C2" to="B2" priority="-1">
        <lane id="C2B2_0" index="0" speed="13.89" length="100.00" width="3.20" shape="186.40,208.00 113.60,208.00"/>
        <lane id="C2B2_1" index="1" speed="13.89" length="100.00" width="3.20" shape="186.40,204.80 113.60,204.80"/>
        <lane id="C2B2_2" index="2" allow="custom1" speed="19.44" length="100.00" width="3.20" shape="186.40,201.60 113.60,201.60"/>
    </edge>
    <edge id="C2C1" from="C2" to="C1" priority="-1">
        <lane id="C2C1_0" index="0" speed="13.89" length="100.00" width="3.20" shape="192.00,186.40 192.00,113.60"/>
        <lane id="C2C1_1" index="1" speed="13.89" length="100.00" width="3.20" shape="195.20,186.40 195.20,113.60"/>
        <lane id="C2C1_2" index="2" allow="custom1" speed="19.44" length="100.00" width="3.20" shape="198.40,186.40 198.40,113.60"/>
    </edge>
    <edge id="C2D2" from="C2" to="D2" priority="-1">
        <lane id="C2D2_0" index="0" speed="13.89" length="100.00" width="3.20" shape="213.60,192.00 286.40,192.00"/>
        <lane id="C2D2_1" index="1" speed="13.89" length="100.00" width="3.20" shape="213.60,195.20 286.40,195.20"/>
        <lane id="C2D2_2" index="2" allow="custom1" speed="19.44" length="100.00" width="3.20" shape="213.60,198.40 286.40,198.40"/>
    </edge>
    <edge id="D0C0" from="D0" to="C0" priority="-1">
        <lane id="D0C0_0" index="0" speed="13.89" length="100.00" width="3.20" shape="286.40,8.00 213.60,8.00"/>
        <lane id="D0C0_1" index="1" speed="13.89" length="100.00" width="3.20" shape="286.40,4.80 213.60,4.80"/>
        <lane id="D0C0_2" index="2" allow="custom1" speed="19.44" length="100.00" width="3.20" shape="286.40,1.60 213.60,1.60"/>
    </edge>
    <edge id="D0D1" from="D0" to="D1" priority="-1">
        <lane id="D0D1_0" index="0" speed="13.89" length="100.00" width="3.20" shape="308.00,13.60 308.00,86.40"/>
        <lane id="D0D1_1" index="1" speed="13.89" length="100.00" width="3.20" shape="304.80,13.60 304.80,86.40"/>
        <lane id="D0D1_2" index="2" allow="custom1" speed="19.44" length="100.00" width="3.20" shape="301.60,13.60 301.60,86.40"/>
    </edge>
    <edge id="D0E0" from="D0" to="E0" priority="-1">
        <lane id="D0E0_0" index="0" speed="13.89" length="100.00" width="3.20" shape="313.60,-8.00 390.40,-8.00"/>
        <lane id="D0E0_1" index="1" speed="13.89" length="100.00" width="3.20" shape="313.60,-4.80 390.40,-4.80"/>
        <lane id="D0E0_2" index="2" allow="custom1" speed="19.44" length="100.00" width="3.20" shape="313.60,-1.60 390.40,-1.60"/>
    </edge>
    <edge id="D1C1" from="D1" to="C1" priority="-1">
        <lane id="D1C1_0" index="0" speed="13.89" length="100.00" width="3.20" shape="286.40,108.00 213.60,108.00"/>
        <lane id="D1C1_1" index="1" speed="13.89" length="100.00" width="3.20" shape="286.40,104.80 213.60,104.80"/>
        <lane id="D1C1_2" index="2" allow="custom1" speed="19.44" length="100.00" width="3.20" shape="286.40,101.60 213.60,101.60"/>
    </edge>
    <edge id="D1D0" from="D1" to="D0" priority="-1">
        <lane id="D1D0_0" index="0" speed="13.89" length="100.00" width="3.20" shape="292.00,86.40 292.00,13.60"/>
        <lane id="D1D0_1" index="1" speed="13.89" length="100.00" width="3.20" shape="295.20,86.40 295.20,13.60"/>
        <lane id="D1D0_2" index="2" allow="custom1" speed="19.44" length="100.00" width="3.20" shape="298.40,86.40 298.40,13.60"/>
    </edge>
    <edge id="D1D2" from="D1" to="D2" priority="-1">
        <lane id="D1D2_0" index="0" speed="13.89" length="100.00" width="3.20" shape="308.00,113.60 308.00,186.40"/>
        <lane id="D1D2_1" index="1" speed="13.89" length="100.00" width="3.20" shape="304.80,113.60 304.80,186.40"/>
        <lane id="D1D2_2" index="2" allow="custom1" speed="19.44" length="100.00" width="3.20" shape="301.60,113.60 301.60,186.40"/>
    </edge>
    <edge id="D1E1" from="D1" to="E1" priority="-1">
        <lane id="D1E1_0" index="0" speed="13.89" length="100.00" width="3.20" shape="313.60,92.00 386.40,92.00"/>
        <lane id="D1E1_1" index="1" speed="13.89" length="100.00" width="3.20" shape="313.60,95.20 386.40,95.20"/>
        <lane id="D1E1_2" index="2" allow="custom1" speed="19.44" length="100.00" width="3.20" shape="313.60,98.40 386.40,98.40"/>
    </edge>
    <edge id="D2C2" from="D2" to="C2" priority="-1">
        <lane id="D2C2_0" index="0" speed="13.89" length="100.00" width="3.20" shape="286.40,208.00 213.60,208.00"/>
        <lane id="D2C2_1" index="1" speed="13.89" length="100.00" width="3.20" shape="286.40,204.80 213.60,204.80"/>
        <lane id="D2C2_2" index="2" allow="custom1" speed="19.44" length="100.00" width="3.20" shape="286.40,201.60 213.60,201.60"/>
    </edge>
    <edge id="D2D1" from="D2" to="D1" priority="-1">
        <lane id="D2D1_0" index="0" speed="13.89" length="100.00" width="3.20" shape="292.00,186.40 292.00,113.60"/>
        <lane id="D2D1_1" index="1" speed="13.89" length="100.00" width="3.20" shape="295.20,186.40 295.20,113.60"/>
        <lane id="D2D1_2" index="2" allow="custom1" speed="19.44" length="100.00" width="3.20" shape="298.40,186.40 298.40,113.60"/>
    </edge>
    <edge id="D2E2" from="D2" to="E2" priority="-1">
        <lane id="D2E2_0" index="0" speed="13.89" length="100.00" width="3.20" shape="313.60,192.00 390.40,192.00"/>
        <lane id="D2E2_1" index="1" speed="13.89" length="100.00" width="3.20" shape="313.60,195.20 390.40,195.20"/>
        <lane id="D2E2_2" index="2" allow="custom1" speed="19.44" length="100.00" width="3.20" shape="313.60,198.40 390.40,198.40"/>
    </edge>
    <edge id="E0D0" from="E0" to="D0" priority="-1">
        <lane id="E0D0_0" index="0" speed="13.89" length="100.00" width="3.20" shape="390.40,8.00 313.60,8.00"/>
        <lane id="E0D0_1" index="1" speed="13.89" length="100.00" width="3.20" shape="390.40,4.80 313.60,4.80"/>
        <lane id="E0D0_2" index="2" allow="custom1" speed="19.44" length="100.00" width="3.20" shape="390.40,1.60 313.60,1.60"/>
    </edge>
    <edge id="E0E1" from="E0" to="E1" priority="-1">
        <lane id="E0E1_0" index="0" speed="13.89" length="100.00" width="3.20" shape="408.00,9.60 408.00,86.40"/>
        <lane id="E0E1_1" index="1" speed="13.89" length="100.00" width="3.20" shape="404.80,9.60 404.80,86.40"/>
        <lane id="E0E1_2" index="2" allow="custom1" speed="19.44" length="100.00" width="3.20" shape="401.60,9.60 401.60,86.40"/>
    </edge>
    <edge id="E1D1" from="E1" to="D1" priority="-1">
        <lane id="E1D1_0" index="0" disallow="pedestrian tram rail_urban rail rail_electric rail_fast ship" speed="13.89" length="100.00" width="3.20" shape="386.40,108.00 313.60,108.00"/>
        <lane id="E1D1_1" index="1" disallow="pedestrian tram rail_urban rail rail_electric rail_fast ship" speed="13.89" length="100.00" width="3.20" shape="386.40,104.80 313.60,104.80"/>
        <lane id="E1D1_2" index="2" allow="custom1" speed="19.44" length="100.00" width="3.20" shape="386.40,101.60 313.60,101.60"/>
    </edge>
    <edge id="E1E0" from="E1" to="E0" priority="-1">
        <lane id="E1E0_0" index="0" speed="13.89" length="100.00" width="3.20" shape="392.00,86.40 392.00,9.60"/>
        <lane id="E1E0_1" index="1" speed="13.89" length="100.00" width="3.20" shape="395.20,86.40 395.20,9.60"/>
        <lane id="E1E0_2" index="2" allow="custom1" speed="19.44" length="100.00" width="3.20" shape="398.40,86.40 398.40,9.60"/>
    </edge>
    <edge id="E1E2" from="E1" to="E2" priority="-1">
        <lane id="E1E2_0" index="0" speed="13.89" length="100.00" width="3.20" shape="408.00,113.60 408.00,190.40"/>
        <lane id="E1E2_1" index="1" speed="13.89" length="100.00" width="3.20" shape="404.80,113.60 404.80,190.40"/>
        <lane id="E1E2_2" index="2" allow="custom1" speed="19.44" length="100.00" width="3.20" shape="401.60,113.60 401.60,190.40"/>
    </edge>
    <edge id="E2D2" from="E2" to="D2" priority="-1">
        <lane id="E2D2_0" index="0" speed="13.89" length="100.00" width="3.20" shape="390.40,208.00 313.60,208.00"/>
        <lane id="E2D2_1" index="1" speed="13.89" length="100.00" width="3.20" shape="390.40,204.80 313.60,204.80"/>
        <lane id="E2D2_2" index="2" allow="custom1" speed="19.44" length="100.00" width="3.20" shape="390.40,201.60 313.60,201.60"/>
    </edge>
    <edge id="E2E1" from="E2" to="E1" priority="-1">
        <lane id="E2E1_0" index="0" speed="13.89" length="100.00" width="3.20" shape="392.00,190.40 392.00,113.60"/>
        <lane id="E2E1_1" index="1" speed="13.89" length="100.00" width="3.20" shape="395.20,190.40 395.20,113.60"/>
        <lane id="E2E1_2" index="2" allow="custom1" speed="19.44" length="100.00" width="3.20" shape="398.40,190.40 398.40,113.60"/>
    </edge>

    <tlLogic id="A0" type="static" programID="0" offset="0">
        <phase duration="42" state="GGGGGG"/>
        <phase duration="3"  state="yyyyyy"/>
        <phase duration="42" state="GGGGGG"/>
        <phase duration="3"  state="yyyyyy"/>
    </tlLogic>
    <tlLogic id="A1" type="static" programID="0" offset="0">
        <phase duration="42" state="GGgGgggrrrrrrGGGGg"/>
        <phase duration="3"  state="yyyyyyyrrrrrryyyyy"/>
        <phase duration="42" state="rrrrrrrGGgGGgGrrrr"/>
        <phase duration="3"  state="rrrrrrryyyyyyyrrrr"/>
    </tlLogic>
    <tlLogic id="A2" type="static" programID="0" offset="0">
        <phase duration="42" state="GGGGGG"/>
        <phase duration="3"  state="yyyyyy"/>
        <phase duration="42" state="GGGGGG"/>
        <phase duration="3"  state="yyyyyy"/>
    </tlLogic>
    <tlLogic id="B0" type="static" programID="0" offset="0">
        <phase duration="42" state="rrrrrrGGgGGgGGgGggg"/>
        <phase duration="3"  state="rrrrrryyyyyyyyyyyyy"/>
        <phase duration="42" state="GGgGGgGrGrrrrrrrrrr"/>
        <phase duration="3"  state="yyyyyyyryrrrrrrrrrr"/>
    </tlLogic>
    <tlLogic id="B1" type="static" programID="0" offset="0">
        <phase duration="42" state="GGGggGggrrrrrrrrGGgGggGggrrrrrrrr"/>
        <phase duration="3"  state="yyyyyyyyrrrrrrrryyyyyyyyyrrrrrrrr"/>
        <phase duration="42" state="rrrrrrrrGGgGgGggrrrrrrrrrGGGggGgg"/>
        <phase duration="3"  state="rrrrrrrryyyyyyyyrrrrrrrrryyyyyyyy"/>
    </tlLogic>
    <tlLogic id="B2" type="static" programID="0" offset="0">
        <phase duration="42" state="GGgGgggrrrrrrGGgGGg"/>
        <phase duration="3"  state="yyyyyyyrrrrrryyyyyy"/>
        <phase duration="42" state="rrrrrrrGGgGGgGrGrrr"/>
        <phase duration="3"  state="rrrrrrryyyyyyyryrrr"/>
    </tlLogic>
    <tlLogic id="C0" type="static" programID="0" offset="0">
        <phase duration="42" state="rrrrrrGGgGGgGGgGggg"/>
        <phase duration="3"  state="rrrrrryyyyyyyyyyyyy"/>
        <phase duration="42" state="GGgGGgGrGrrrrrrrrrr"/>
        <phase duration="3"  state="yyyyyyyryrrrrrrrrrr"/>
    </tlLogic>
    <tlLogic id="C1" type="static" programID="0" offset="0">
        <phase duration="42" state="GGgGggGggrrrrrrrrGGgGgGggrrrrrrrr"/>
        <phase duration="3"  state="yyyyyyyyyrrrrrrrryyyyyyyyrrrrrrrr"/>
        <phase duration="42" state="rrrrrrrrrGGgGgGggrrrrrrrrGGgGgGgg"/>
        <phase duration="3"  state="rrrrrrrrryyyyyyyyrrrrrrrryyyyyyyy"/>
    </tlLogic>
    <tlLogic id="C2" type="static" programID="0" offset="0">
        <phase duration="42" state="GGgGgggrrrrrrGGgGGg"/>
        <phase duration="3"  state="yyyyyyyrrrrrryyyyyy"/>
        <phase duration="42" state="rrrrrrrGGgGGgGrGrrr"/>
        <phase duration="3"  state="rrrrrrryyyyyyyryrrr"/>
    </tlLogic>
    <tlLogic id="D0" type="static" programID="0" offset="0">
        <phase duration="42" state="rrrrrrGGgGGgGGgGggg"/>
        <phase duration="3"  state="rrrrrryyyyyyyyyyyyy"/>
        <phase duration="42" state="GGgGGgGrGrrrrrrrrrr"/>
        <phase duration="3"  state="yyyyyyyryrrrrrrrrrr"/>
    </tlLogic>
    <tlLogic id="D1" type="static" programID="0" offset="0">
        <phase duration="42" state="GGgGgGggrrrrrrrrrGGgGggGggrrrrrrrrr"/>
        <phase duration="3"  state="yyyyyyyyrrrrrrrrryyyyyyyyyrrrrrrrrr"/>
        <phase duration="42" state="rrrrrrrrGGgGggGggrrrrrrrrrGGgGggGgg"/>
        <phase duration="3"  state="rrrrrrrryyyyyyyyyrrrrrrrrryyyyyyyyy"/>
    </tlLogic>
    <tlLogic id="D2" type="static" programID="0" offset="0">
        <phase duration="42" state="GGgGgggrrrrrrGGgGggGg"/>
        <phase duration="3"  state="yyyyyyyrrrrrryyyyyyyy"/>
        <phase duration="42" state="rrrrrrrGGgGGgGrrrrGrr"/>
        <phase duration="3"  state="rrrrrrryyyyyyyrrrryrr"/>
    </tlLogic>
    <tlLogic id="E0" type="static" programID="0" offset="0">
        <phase duration="42" state="GGGGGG"/>
        <phase duration="3"  state="yyyyyy"/>
        <phase duration="42" state="GGGGGG"/>
        <phase duration="3"  state="yyyyyy"/>
    </tlLogic>
    <tlLogic id="E1" type="static" programID="0" offset="0">
        <phase duration="42" state="GGgGGgGGgGgggrrrrrr"/>
        <phase duration="3"  state="yyyyyyyyyyyyyrrrrrr"/>
        <phase duration="42" state="GrGrrrrrrrrrrGGgGGg"/>
        <phase duration="3"  state="yryrrrrrrrrrryyyyyy"/>
    </tlLogic>
    <tlLogic id="E2" type="static" programID="0" offset="0">
        <phase duration="42" state="GGGGGG"/>
        <phase duration="3"  state="yyyyyy"/>
        <phase duration="42" state="GGGGGG"/>
        <phase duration="3"  state="yyyyyy"/>
    </tlLogic>

    <junction id="A0" type="traffic_light" x="0.00" y="0.00" incLanes="A1A0_0 A1A0_1 A1A0_2 B0A0_0 B0A0_1 B0A0_2" intLanes="" shape="-9.60,9.60 9.60,9.60 9.60,-9.60 3.73,-9.07 -1.07,-7.47 -4.80,-4.80 -7.47,-1.07 -9.07,3.73">
        <request index="0" response="000000" foes="000000"/>
        <request index="1" response="000000" foes="000000"/>
        <request index="2" response="000000" foes="000000"/>
        <request index="3" response="000000" foes="000000"/>
        <request index="4" response="000000" foes="000000"/>
        <request index="5" response="000000" foes="000000"/>
    </junction>
    <junction id="A1" type="traffic_light" x="0.00" y="100.00" incLanes="A2A1_0 A2A1_1 A2A1_2 B1A1_0 B1A1_1 B1A1_2 A0A1_0 A0A1_1 A0A1_2" intLanes="" shape="-9.60,113.60 9.60,113.60 10.04,111.38 10.60,110.60 11.38,110.04 12.38,109.71 13.60,109.60 13.60,90.40 11.38,89.96 10.60,89.40 10.04,88.62 9.71,87.62 9.60,86.40 -9.60,86.40">
        <request index="0"  response="000000000000000000" foes="100000111000000000"/>
        <request index="1"  response="000000000000000000" foes="100000111000000000"/>
        <request index="2"  response="011100000000011000" foes="011101111000011000"/>
        <request index="3"  response="000000000000000000" foes="100000111000000100"/>
        <request index="4"  response="011100000000000000" foes="011101111000000100"/>
        <request index="5"  response="011100000000000000" foes="011101111000000000"/>
        <request index="6"  response="010000000000000000" foes="010000000000000000"/>
        <request index="7"  response="011100000000000000" foes="011100000000000000"/>
        <request index="8"  response="011100000000000000" foes="011100000000000000"/>
        <request index="9"  response="011100010000111111" foes="111100010000111111"/>
        <request index="10" response="011100000000111111" foes="111100001000111111"/>
        <request index="11" response="011100000000111100" foes="111100000000111100"/>
        <request index="12" response="000000000000110000" foes="000000000000110000"/>
        <request index="13" response="000000000000000000" foes="000000000000000000"/>
        <request index="14" response="000000000000000000" foes="000000111111110100"/>
        <request index="15" response="000000000000000000" foes="000000111111110100"/>
        <request index="16" response="000000000000000000" foes="000000111001110100"/>
        <request index="17" response="000000110000001000" foes="000000110000001000"/>
    </junction>
    <junction id="A2" type="traffic_light" x="0.00" y="200.00" incLanes="B2A2_0 B2A2_1 B2A2_2 A1A2_0 A1A2_1 A1A2_2" intLanes="" shape="9.60,209.60 9.60,190.40 -9.60,190.40 -9.07,196.27 -7.47,201.07 -4.80,204.80 -1.07,207.47 3.73,209.07">
        <request index="0" response="000000" foes="000000"/>
        <request index="1" response="000000" foes="000000"/>
        <request index="2" response="000000" foes="000000"/>
        <request index="3" response="000000" foes="000000"/>
        <request index="4" response="000000" foes="000000"/>
        <request index="5" response="000000" foes="000000"/>
    </junction>
    <junction id="B0" type="traffic_light" x="100.00" y="0.00" incLanes="B1B0_0 B1B0_1 B1B0_2 C0B0_0 C0B0_1 C0B0_2 A0B0_0 A0B0_1 A0B0_2" intLanes="" shape="90.40,13.60 109.60,13.60 110.04,11.38 110.60,10.60 111.38,10.04 112.38,9.71 113.60,9.60 113.60,-9.60 86.40,-9.60 86.40,9.60 88.62,10.04 89.40,10.60 89.96,11.38 90.29,12.38">
        <request index="0"  response="0000000011010000000" foes="0000000011010000000"/>
        <request index="1"  response="0000000011010000000" foes="0000000011010000000"/>
        <request index="2"  response="0111100011010010000" foes="0111100111010010000"/>
        <request index="3"  response="0111111011010000000" foes="0111111111010000000"/>
        <request index="4"  response="0111100011010000000" foes="0111100111010000100"/>
        <request index="5"  response="0110100000000000000" foes="0110100000000000000"/>
        <request index="6"  response="0000000000000000000" foes="0110100000000000000"/>
        <request index="7"  response="0000000000000000000" foes="1110100000100011111"/>
        <request index="8"  response="0000000000010000000" foes="0110100000010000000"/>
        <request index="9"  response="0000000000000000000" foes="1110100000000011111"/>
        <request index="10" response="0000000000000000000" foes="1110100000000011100"/>
        <request index="11" response="0001000000000011100" foes="0001000000000011100"/>
        <request index="12" response="0000000000000000000" foes="0000000100000011100"/>
        <request index="13" response="0000000000000000000" foes="0000000100000011100"/>
        <request index="14" response="0101000011010000000" foes="0101000011010111100"/>
        <request index="15" response="0000000000000000000" foes="0000100100000011100"/>
        <request index="16" response="0000000011111000000" foes="0000000011111111100"/>
        <request index="17" response="0000000011010000000" foes="0000100011010111100"/>
        <request index="18" response="0000000010000000000" foes="0000000010000000000"/>