<?xml version="1.0" encoding="UTF-8"?>

<!-- generated on 2024-01-24 12:44:12 by Eclipse SUMO netconvert Version 1.19.0
<configuration xmlns:xsi="http://www.w3.org/2001/XMLSchema-instance" xsi:noNamespaceSchemaLocation="http://sumo.dlr.de/xsd/netconvertConfiguration.xsd">

    <input>
        <sumo-net-file value="LargeTestNetwork.net.xml"/>
    </input>

    <output>
        <output-file value="LargeTestNetwork.net.xml"/>
    </output>

    <processing>
        <geometry.min-radius.fix.railways value="false"/>
        <geometry.max-grade.fix value="false"/>
        <offset.disable-normalization value="true"/>
        <lefthand value="0"/>
    </processing>

    <junctions>
        <no-internal-links value="false"/>
        <no-turnarounds value="true"/>
        <junctions.corner-detail value="5"/>
        <junctions.limit-turn-speed value="5.50"/>
        <rectangular-lane-cut value="0"/>
    </junctions>

    <pedestrian>
        <walkingareas value="0"/>
    </pedestrian>

</configuration>
-->

<net version="1.16" junctionCornerDetail="5" limitTurnSpeed="5.50" xmlns:xsi="http://www.w3.org/2001/XMLSchema-instance" xsi:noNamespaceSchemaLocation="http://sumo.dlr.de/xsd/net_file.xsd">

    <location netOffset="882.72,1528.66" convBoundary="0.00,0.00,1795.49,2428.02" origBoundary="-882.72,-1528.66,912.78,899.36" projParameter="!"/>

    <edge id=":1_0" function="internal">
        <lane id=":1_0_0" index="0" allow="custom1 custom2" speed="5.98" length="9.08" width="3.20" shape="874.99,1545.60 874.58,1543.03 873.45,1541.46 871.60,1540.87 869.03,1541.29"/>
    </edge>
    <edge id=":1_1" function="internal">
        <lane id=":1_1_0" index="0" allow="custom1 custom2" speed="25.00" length="27.98" width="3.20" shape="874.99,1545.60 874.87,1537.30 874.58,1531.60 873.73,1525.98 871.91,1517.89"/>
    </edge>
    <edge id=":1_2" function="internal">
        <lane id=":1_2_0" index="0" allow="custom1 custom2" speed="12.05" length="6.78" width="3.20" shape="874.99,1545.60 876.83,1539.08"/>
    </edge>
    <edge id=":1_3" function="internal">
        <lane id=":1_3_0" index="0" disallow="custom1" speed="7.59" length="4.42" width="3.20" shape="878.18,1545.55 877.49,1541.19"/>
    </edge>
    <edge id=":1_4" function="internal">
        <lane id=":1_4_0" index="0" disallow="custom1" speed="13.89" length="28.69" width="3.20" shape="878.18,1545.55 878.06,1537.04 877.77,1531.20 876.89,1525.44 875.02,1517.15"/>
    </edge>
    <edge id=":1_5" function="internal">
        <lane id=":1_5_0" index="0" disallow="custom1" speed="11.29" length="11.12" width="3.20" shape="878.18,1545.55 879.82,1538.45 881.87,1535.22"/>
    </edge>
    <edge id=":1_6" function="internal">
        <lane id=":1_6_0" index="0" disallow="custom1" speed="8.91" length="4.96" width="3.20" shape="881.38,1545.50 880.61,1540.60"/>
    </edge>
    <edge id=":1_7" function="internal">
        <lane id=":1_7_0" index="0" disallow="custom1" speed="13.89" length="29.39" width="3.20" shape="881.38,1545.50 881.26,1536.78 880.95,1530.80 880.05,1524.89 878.13,1516.40"/>
    </edge>
    <edge id=":1_8" function="internal">
        <lane id=":1_8_0" index="0" disallow="custom1" speed="10.40" length="3.36" width="3.20" shape="881.38,1545.50 882.06,1542.21"/>
    </edge>
    <edge id=":1_36" function="internal">
        <lane id=":1_36_0" index="0" allow="custom1 custom2" speed="12.05" length="28.13" width="3.20" shape="876.83,1539.08 877.14,1537.99 882.68,1529.94 889.91,1523.62 897.14,1521.20"/>
    </edge>
    <edge id=":1_37" function="internal">
        <lane id=":1_37_0" index="0" disallow="custom1" speed="7.59" length="10.99" width="3.20" shape="877.49,1541.19 875.58,1538.52 872.44,1537.53 868.08,1538.23"/>
    </edge>
    <edge id=":1_38" function="internal">
        <lane id=":1_38_0" index="0" disallow="custom1" speed="11.29" length="19.37" width="3.20" shape="881.87,1535.22 884.22,1531.52 890.31,1526.31 897.02,1524.40"/>
    </edge>
    <edge id=":1_39" function="internal">
        <lane id=":1_39_0" index="0" disallow="custom1" speed="8.91" length="16.77" width="3.20" shape="880.61,1540.60 880.41,1539.35 877.71,1535.58 873.28,1534.19 867.13,1535.17"/>
    </edge>
    <edge id=":1_40" function="internal">
        <lane id=":1_40_0" index="0" disallow="custom1" speed="10.40" length="22.33" width="3.20" shape="882.06,1542.21 882.65,1539.33 886.14,1533.48 891.13,1529.16 896.90,1527.60"/>
    </edge>
    <edge id=":1_9" function="internal">
        <lane id=":1_9_0" index="0" allow="custom1 custom2" speed="7.06" length="11.26" width="3.20" shape="896.54,1537.19 894.06,1537.62 892.31,1539.12 891.28,1541.70 890.98,1545.35"/>
    </edge>
    <edge id=":1_10" function="internal">
        <lane id=":1_10_0" index="0" allow="custom1 custom2" speed="25.00" length="28.06" width="3.20" shape="896.54,1537.19 888.24,1537.03 882.55,1537.49 876.97,1538.83 869.03,1541.29"/>
    </edge>
    <edge id=":1_11" function="internal">
        <lane id=":1_11_0" index="0" allow="custom1 custom2" speed="13.31" length="16.35" width="3.20" shape="896.54,1537.19 889.33,1535.15 881.82,1530.45"/>
    </edge>
    <edge id=":1_12" function="internal">
        <lane id=":1_12_0" index="0" disallow="custom1" speed="8.45" length="3.99" width="3.20" shape="896.66,1533.99 892.71,1534.58"/>
    </edge>
    <edge id=":1_13" function="internal">
        <lane id=":1_13_0" index="0" disallow="custom1" speed="13.89" length="29.14" width="3.20" shape="896.66,1533.99 888.04,1533.82 882.13,1534.30 876.34,1535.68 868.08,1538.23"/>
    </edge>
    <edge id=":1_14" function="internal">
        <lane id=":1_14_0" index="0" disallow="custom1" speed="12.54" length="11.36" width="3.20" shape="896.66,1533.99 889.90,1532.33 886.12,1530.07"/>
    </edge>
    <edge id=":1_15" function="internal">
        <lane id=":1_15_0" index="0" disallow="custom1" speed="9.64" length="4.59" width="3.20" shape="896.78,1530.79 892.23,1531.41"/>
    </edge>
    <edge id=":1_16" function="internal">
        <lane id=":1_16_0" index="0" disallow="custom1" speed="13.89" length="30.23" width="3.20" shape="896.78,1530.79 887.84,1530.61 881.71,1531.11 875.70,1532.54 867.13,1535.17"/>
    </edge>
    <edge id=":1_17" function="internal">
        <lane id=":1_17_0" index="0" disallow="custom1" speed="11.66" length="3.37" width="3.20" shape="896.78,1530.79 893.50,1530.02"/>
    </edge>
    <edge id=":1_41" function="internal">
        <lane id=":1_41_0" index="0" allow="custom1 custom2" speed="13.31" length="16.18" width="3.20" shape="881.82,1530.45 881.71,1530.38 875.35,1524.19 871.91,1517.89"/>
    </edge>
    <edge id=":1_42" function="internal">
        <lane id=":1_42_0" index="0" disallow="custom1" speed="8.45" length="12.60" width="3.20" shape="892.71,1534.58 889.91,1536.67 888.27,1540.28 887.78,1545.40"/>
    </edge>
    <edge id=":1_43" function="internal">
        <lane id=":1_43_0" index="0" disallow="custom1" speed="12.54" length="17.43" width="3.20" shape="886.12,1530.07 883.31,1528.40 877.98,1523.05 875.02,1517.15"/>
    </edge>
    <edge id=":1_44" function="internal">
        <lane id=":1_44_0" index="0" disallow="custom1" speed="9.64" length="17.35" width="3.20" shape="892.23,1531.41 891.35,1531.53 887.51,1534.22 885.26,1538.86 884.58,1545.45"/>
    </edge>
    <edge id=":1_45" function="internal">
        <lane id=":1_45_0" index="0" disallow="custom1" speed="11.66" length="21.41" width="3.20" shape="893.50,1530.02 890.86,1529.39 885.20,1526.08 880.67,1521.52 878.13,1516.40"/>
    </edge>
    <edge id=":1_18" function="internal">
        <lane id=":1_18_0" index="0" allow="custom1 custom2" speed="8.56" length="12.96" width="3.20" shape="887.46,1514.16 888.68,1517.12 890.69,1519.29 893.52,1520.65 897.14,1521.20"/>
    </edge>
    <edge id=":1_19" function="internal">
        <lane id=":1_19_0" index="0" allow="custom1 custom2" speed="25.00" length="31.50" width="3.20" shape="887.46,1514.16 889.46,1523.08 890.45,1529.60 890.83,1536.20 890.98,1545.35"/>
    </edge>
    <edge id=":1_20" function="internal">
        <lane id=":1_20_0" index="0" allow="custom1 custom2" speed="12.52" length="11.57" width="3.20" shape="887.46,1514.16 886.60,1521.44 884.61,1525.17"/>
    </edge>
    <edge id=":1_21" function="internal">
        <lane id=":1_21_0" index="0" disallow="custom1" speed="9.77" length="4.32" width="3.20" shape="884.35,1514.90 885.96,1518.91"/>
    </edge>
    <edge id=":1_22" function="internal">
        <lane id=":1_22_0" index="0" disallow="custom1" speed="13.89" length="30.80" width="3.20" shape="884.35,1514.90 886.33,1523.71 887.29,1530.00 887.64,1536.36 887.78,1545.40"/>
    </edge>
    <edge id=":1_23" function="internal">
        <lane id=":1_23_0" index="0" disallow="custom1" speed="11.75" length="9.57" width="3.20" shape="884.35,1514.90 883.81,1521.54 882.46,1524.12"/>
    </edge>
    <edge id=":1_24" function="internal">
        <lane id=":1_24_0" index="0" disallow="custom1" speed="10.85" length="4.51" width="3.20" shape="881.24,1515.65 882.91,1519.84"/>
    </edge>
    <edge id=":1_25" function="internal">
        <lane id=":1_25_0" index="0" disallow="custom1" speed="13.89" length="30.10" width="3.20" shape="881.24,1515.65 883.21,1524.35 884.14,1530.40 884.45,1536.52 884.58,1545.45"/>
    </edge>
    <edge id=":1_26" function="internal">
        <lane id=":1_26_0" index="0" disallow="custom1" speed="10.87" length="2.54" width="3.20" shape="881.24,1515.65 881.06,1518.19"/>
    </edge>
    <edge id=":1_46" function="internal">
        <lane id=":1_46_0" index="0" allow="custom1 custom2" speed="12.52" length="22.86" width="3.20" shape="884.61,1525.17 882.16,1529.77 875.76,1537.07 869.03,1541.29"/>
    </edge>
    <edge id=":1_47" function="internal">
        <lane id=":1_47_0" index="0" disallow="custom1" speed="9.77" length="12.84" width="3.20" shape="885.96,1518.91 888.61,1521.83 892.30,1523.66 897.02,1524.40"/>
    </edge>
    <edge id=":1_48" function="internal">
        <lane id=":1_48_0" index="0" disallow="custom1" speed="11.75" length="20.64" width="3.20" shape="882.46,1524.12 880.12,1528.57 874.47,1534.59 868.08,1538.23"/>
    </edge>
    <edge id=":1_49" function="internal">
        <lane id=":1_49_0" index="0" disallow="custom1" speed="10.85" length="16.83" width="3.20" shape="882.91,1519.84 883.25,1520.69 886.53,1524.37 891.08,1526.67 896.90,1527.60"/>
    </edge>
    <edge id=":1_50" function="internal">
        <lane id=":1_50_0" index="0" disallow="custom1" speed="10.87" length="23.18" width="3.20" shape="881.06,1518.19 880.83,1521.34 877.70,1527.16 872.81,1532.11 867.13,1535.17"/>
    </edge>
    <edge id=":1_27" function="internal">
        <lane id=":1_27_0" index="0" allow="custom1 custom2" speed="7.67" length="12.31" width="3.20" shape="864.29,1526.00 868.10,1524.46 870.64,1522.59 871.91,1520.41 871.91,1517.89"/>
    </edge>
    <edge id=":1_28" function="internal">
        <lane id=":1_28_0" index="0" allow="custom1 custom2" speed="25.00" length="33.45" width="3.20" shape="864.29,1526.00 873.36,1523.30 880.47,1521.72 887.70,1521.09 897.14,1521.20"/>
    </edge>
    <edge id=":1_29" function="internal">
        <lane id=":1_29_0" index="0" allow="custom1 custom2" speed="11.24" length="13.85" width="3.20" shape="864.29,1526.00 872.02,1526.67 877.38,1529.54"/>
    </edge>
    <edge id=":1_30" function="internal">
        <lane id=":1_30_0" index="0" disallow="custom1" speed="8.97" length="5.66" width="3.20" shape="865.23,1529.06 870.26,1526.95 870.42,1526.81"/>
    </edge>
    <edge id=":1_31" function="internal">
        <lane id=":1_31_0" index="0" disallow="custom1" speed="13.89" length="32.38" width="3.20" shape="865.23,1529.06 874.14,1526.38 880.88,1524.85 887.75,1524.26 897.02,1524.40"/>
    </edge>
    <edge id=":1_32" function="internal">
        <lane id=":1_32_0" index="0" disallow="custom1" speed="10.48" length="9.41" width="3.20" shape="865.23,1529.06 872.32,1529.25 874.40,1530.29"/>
    </edge>
    <edge id=":1_33" function="internal">
        <lane id=":1_33_0" index="0" disallow="custom1" speed="10.10" length="6.21" width="3.20" shape="866.18,1532.12 871.88,1529.66"/>
    </edge>
    <edge id=":1_34" function="internal">
        <lane id=":1_34_0" index="0" disallow="custom1" speed="13.89" length="31.31" width="3.20" shape="866.18,1532.12 874.92,1529.45 881.29,1527.98 887.79,1527.44 896.90,1527.60"/>
    </edge>
    <edge id=":1_35" function="internal">
        <lane id=":1_35_0" index="0" disallow="custom1" speed="9.54" length="2.43" width="3.20" shape="866.18,1532.12 868.61,1532.15"/>
    </edge>
    <edge id=":1_51" function="internal">
        <lane id=":1_51_0" index="0" allow="custom1 custom2" speed="11.24" length="21.52" width="3.20" shape="877.38,1529.54 880.77,1531.36 887.95,1538.21 890.98,1545.35"/>
    </edge>
    <edge id=":1_52" function="internal">
        <lane id=":1_52_0" index="0" disallow="custom1" speed="8.97" length="11.53" width="3.20" shape="870.42,1526.81 873.56,1524.26 875.15,1520.99 875.02,1517.15"/>
    </edge>
    <edge id=":1_53" function="internal">
        <lane id=":1_53_0" index="0" disallow="custom1" speed="10.48" length="21.13" width="3.20" shape="874.40,1530.29 879.64,1532.91 885.40,1538.73 887.78,1545.40"/>
    </edge>
    <edge id=":1_54" function="internal">
        <lane id=":1_54_0" index="0" disallow="custom1" speed="10.10" length="15.88" width="3.20" shape="871.88,1529.66 872.42,1529.43 876.49,1525.92 878.39,1521.57 878.13,1516.40"/>
    </edge>
    <edge id=":1_55" function="internal">
        <lane id=":1_55_0" index="0" disallow="custom1" speed="9.54" length="22.66" width="3.20" shape="868.61,1532.15 872.09,1532.19 878.05,1535.10 882.68,1539.86 884.58,1545.45"/>
    </edge>
    <edge id=":10_0" function="internal">
        <lane id=":10_0_0" index="0" allow="custom1 custom2" speed="5.61" length="9.32" width="3.20" shape="719.71,1602.33 718.48,1599.78 716.99,1598.73 715.23,1599.21 713.21,1601.20"/>
    </edge>
    <edge id=":10_1" function="internal">
        <lane id=":10_1_0" index="0" allow="custom1 custom2" speed="23.45" length="30.27" width="3.20" shape="719.71,1602.33 717.06,1593.73 714.90,1587.78 711.46,1582.70 704.98,1576.74"/>
    </edge>
    <edge id=":10_2" function="internal">
        <lane id=":10_2_0" index="0" allow="custom1 custom2" speed="12.79" length="17.26" width="3.20" shape="719.71,1602.33 719.27,1593.63 721.01,1585.26"/>
    </edge>
    <edge id=":10_3" function="internal">
        <lane id=":10_3_0" index="0" disallow="custom1" speed="7.38" length="4.78" width="3.20" shape="722.75,1601.33 720.68,1597.02"/>
    </edge>
    <edge id=":10_4" function="internal">
        <lane id=":10_4_0" index="0" disallow="custom1" speed="13.89" length="32.04" width="3.20" shape="722.75,1601.33 719.94,1592.43 717.47,1586.01 713.70,1580.49 707.00,1574.26"/>
    </edge>
    <edge id=":10_5" function="internal">
        <lane id=":10_5_0" index="0" disallow="custom1" speed="12.06" length="12.18" width="3.20" shape="722.75,1601.33 722.01,1593.25 722.69,1589.24"/>
    </edge>
    <edge id=":10_6" function="internal">
        <lane id=":10_6_0" index="0" disallow="custom1" speed="8.81" length="5.01" width="3.20" shape="725.79,1600.33 723.62,1595.81"/>
    </edge>
    <edge id=":10_7" function="internal">
        <lane id=":10_7_0" index="0" disallow="custom1" speed="13.89" length="33.80" width="3.20" shape="725.79,1600.33 722.82,1591.19 720.00,1584.27 715.89,1578.24 709.03,1571.78"/>
    </edge>
    <edge id=":10_8" function="internal">
        <lane id=":10_8_0" index="0" disallow="custom1" speed="11.28" length="3.86" width="3.20" shape="725.79,1600.33 725.26,1596.50"/>
    </edge>
    <edge id=":10_36" function="internal">
        <lane id=":10_36_0" index="0" allow="custom1 custom2" speed="12.79" length="21.16" width="3.20" shape="721.01,1585.26 721.58,1582.53 725.83,1572.58 731.22,1567.30"/>
    </edge>
    <edge id=":10_37" function="internal">
        <lane id=":10_37_0" index="0" disallow="custom1" speed="7.38" length="12.50" width="3.20" shape="720.68,1597.02 720.47,1596.59 717.70,1594.65 714.44,1595.53 710.69,1599.23"/>
    </edge>
    <edge id=":10_38" function="internal">
        <lane id=":10_38_0" index="0" disallow="custom1" speed="12.06" length="21.83" width="3.20" shape="722.69,1589.24 723.66,1583.53 727.20,1574.97 732.17,1570.35"/>
    </edge>
    <edge id=":10_39" function="internal">
        <lane id=":10_39_0" index="0" disallow="custom1" speed="8.81" length="20.23" width="3.20" shape="723.62,1595.81 722.46,1593.40 718.41,1590.57 713.65,1591.86 708.17,1597.25"/>
    </edge>
    <edge id=":10_40" function="internal">
        <lane id=":10_40_0" index="0" disallow="custom1" speed="11.28" length="25.77" width="3.20" shape="725.26,1596.50 724.77,1592.87 725.77,1584.52 728.61,1577.35 733.11,1573.41"/>
    </edge>
    <edge id=":10_9" function="internal">
        <lane id=":10_9_0" index="0" allow="custom1 custom2" speed="8.44" length="16.13" width="3.20" shape="735.96,1582.58 733.88,1584.12 733.01,1587.10 733.35,1591.49 734.90,1597.31"/>
    </edge>
    <edge id=":10_10" function="internal">
        <lane id=":10_10_0" index="0" allow="custom1 custom2" speed="22.11" length="30.23" width="3.20" shape="735.96,1582.58 727.76,1585.70 722.72,1589.18 718.61,1594.02 713.21,1601.20"/>
    </edge>
    <edge id=":10_11" function="internal">
        <lane id=":10_11_0" index="0" allow="custom1 custom2" speed="15.77" length="15.45" width="3.20" shape="735.96,1582.58 728.85,1583.29 720.60,1582.36"/>
    </edge>
    <edge id=":10_12" function="internal">
        <lane id=":10_12_0" index="0" disallow="custom1" speed="9.61" length="3.49" width="3.20" shape="735.01,1579.52 732.07,1581.40"/>
    </edge>
    <edge id=":10_13" function="internal">
        <lane id=":10_13_0" index="0" disallow="custom1" speed="13.89" length="32.12" width="3.20" shape="735.01,1579.52 726.47,1582.82 720.95,1586.61 716.38,1591.79 710.69,1599.23"/>
    </edge>
    <edge id=":10_14" function="internal">
        <lane id=":10_14_0" index="0" disallow="custom1" speed="13.89" length="10.89" width="3.20" shape="735.01,1579.52 728.37,1580.32 724.19,1579.90"/>
    </edge>
    <edge id=":10_15" function="internal">
        <lane id=":10_15_0" index="0" disallow="custom1" speed="10.66" length="4.22" width="3.20" shape="734.06,1576.46 730.43,1578.62"/>
    </edge>
    <edge id=":10_16" function="internal">
        <lane id=":10_16_0" index="0" disallow="custom1" speed="13.89" length="33.99" width="3.20" shape="734.06,1576.46 725.27,1579.93 719.22,1584.10 714.11,1589.65 708.17,1597.25"/>
    </edge>
    <edge id=":10_17" function="internal">
        <lane id=":10_17_0" index="0" disallow="custom1" speed="13.89" length="2.91" width="3.20" shape="734.06,1576.46 731.18,1576.85"/>
    </edge>
    <edge id=":10_41" function="internal">
        <lane id=":10_41_0" index="0" allow="custom1 custom2" speed="15.77" length="16.71" width="3.20" shape="720.60,1582.36 719.91,1582.28 711.24,1579.97 704.98,1576.74"/>
    </edge>
    <edge id=":10_42" function="internal">
        <lane id=":10_42_0" index="0" disallow="custom1" speed="9.61" length="17.72" width="3.20" shape="732.07,1581.40 731.63,1581.68 729.98,1585.54 730.06,1591.08 731.86,1598.32"/>
    </edge>
    <edge id=":10_43" function="internal">
        <lane id=":10_43_0" index="0" disallow="custom1" speed="13.89" length="18.29" width="3.20" shape="724.19,1579.90 720.44,1579.51 712.80,1577.39 707.00,1574.26"/>
    </edge>
    <edge id=":10_44" function="internal">
        <lane id=":10_44_0" index="0" disallow="custom1" speed="10.66" length="22.13" width="3.20" shape="730.43,1578.62 729.38,1579.24 726.95,1583.98 726.77,1590.67 728.82,1599.32"/>
    </edge>
    <edge id=":10_45" function="internal">
        <lane id=":10_45_0" index="0" disallow="custom1" speed="13.89" length="23.24" width="3.20" shape="731.18,1576.85 727.98,1577.28 721.00,1576.63 714.29,1574.72 709.03,1571.78"/>
    </edge>
    <edge id=":10_18" function="internal">
        <lane id=":10_18_0" index="0" allow="custom1 custom2" speed="11.59" length="17.10" width="3.20" shape="715.10,1564.34 718.75,1566.69 722.66,1567.96 726.81,1568.17 731.22,1567.30"/>
    </edge>
    <edge id=":10_19" function="internal">
        <lane id=":10_19_0" index="0" allow="custom1 custom2" speed="25.00" length="39.09" width="3.20" shape="715.10,1564.34 722.43,1571.49 727.59,1579.04 731.46,1587.49 734.90,1597.31"/>
    </edge>
    <edge id=":10_20" function="internal">
        <lane id=":10_20_0" index="0" allow="custom1 custom2" speed="12.96" length="13.52" width="3.20" shape="715.10,1564.34 718.08,1571.17 718.28,1577.24"/>
    </edge>
    <edge id=":10_21" function="internal">
        <lane id=":10_21_0" index="0" disallow="custom1" speed="12.58" length="3.53" width="3.20" shape="713.08,1566.82 716.04,1568.73"/>
    </edge>
    <edge id=":10_22" function="internal">
        <lane id=":10_22_0" index="0" disallow="custom1" speed="13.89" length="37.32" width="3.20" shape="713.08,1566.82 720.25,1573.74 725.06,1580.79 728.58,1588.72 731.86,1598.32"/>
    </edge>
    <edge id=":10_23" function="internal">
        <lane id=":10_23_0" index="0" disallow="custom1" speed="12.23" length="8.66" width="3.20" shape="713.08,1566.82 715.90,1572.88 715.95,1574.86"/>
    </edge>
    <edge id=":10_24" function="internal">
        <lane id=":10_24_0" index="0" disallow="custom1" speed="13.50" length="3.64" width="3.20" shape="711.05,1569.30 714.11,1571.27"/>
    </edge>
    <edge id=":10_25" function="internal">
        <lane id=":10_25_0" index="0" disallow="custom1" speed="13.89" length="35.56" width="3.20" shape="711.05,1569.30 718.07,1575.99 722.53,1582.53 725.70,1589.96 728.82,1599.32"/>
    </edge>
    <edge id=":10_26" function="internal">
        <lane id=":10_26_0" index="0" disallow="custom1" speed="11.45" length="2.17" width="3.20" shape="711.05,1569.30 712.02,1571.24"/>
    </edge>
    <edge id=":10_46" function="internal">
        <lane id=":10_46_0" index="0" allow="custom1 custom2" speed="12.96" length="24.82" width="3.20" shape="718.28,1577.24 718.44,1581.97 716.65,1593.17 713.21,1601.20"/>
    </edge>
    <edge id=":10_47" function="internal">
        <lane id=":10_47_0" index="0" disallow="custom1" speed="12.58" length="16.73" width="3.20" shape="716.04,1568.73 717.42,1569.61 722.04,1571.13 726.96,1571.38 732.17,1570.35"/>
    </edge>
    <edge id=":10_48" function="internal">
        <lane id=":10_48_0" index="0" disallow="custom1" speed="12.23" length="25.35" width="3.20" shape="715.95,1574.86 716.10,1582.16 714.19,1591.87 710.69,1599.23"/>
    </edge>
    <edge id=":10_49" function="internal">
        <lane id=":10_49_0" index="0" disallow="custom1" speed="13.50" length="19.78" width="3.20" shape="714.11,1571.27 716.08,1572.53 721.43,1574.30 727.11,1574.59 733.11,1573.41"/>
    </edge>
    <edge id=":10_50" function="internal">
        <lane id=":10_50_0" index="0" disallow="custom1" speed="11.45" length="27.53" width="3.20" shape="712.02,1571.24 713.70,1574.58 713.73,1582.34 711.71,1590.56 708.17,1597.25"/>
    </edge>
    <edge id=":10_27" function="internal">
        <lane id=":10_27_0" index="0" allow="custom1 custom2" speed="8.65" length="16.50" width="3.20" shape="700.62,1591.33 704.14,1586.26 706.05,1582.14 706.33,1578.97 704.98,1576.74"/>
    </edge>
    <edge id=":10_28" function="internal">
        <lane id=":10_28_0" index="0" allow="custom1 custom2" speed="25.00" length="39.61" width="3.20" shape="700.62,1591.33 707.29,1583.22 714.01,1576.55 721.69,1571.27 731.22,1567.30"/>
    </edge>
    <edge id=":10_29" function="internal">
        <lane id=":10_29_0" index="0" allow="custom1 custom2" speed="10.66" length="12.11" width="3.20" shape="700.62,1591.33 707.89,1588.13 712.05,1588.28"/>
    </edge>
    <edge id=":10_30" function="internal">
        <lane id=":10_30_0" index="0" disallow="custom1" speed="9.79" length="7.37" width="3.20" shape="703.13,1593.30 707.25,1587.19"/>
    </edge>
    <edge id=":10_31" function="internal">
        <lane id=":10_31_0" index="0" disallow="custom1" speed="13.89" length="37.74" width="3.20" shape="703.13,1593.30 709.56,1585.36 715.75,1579.07 722.89,1574.15 732.17,1570.35"/>
    </edge>
    <edge id=":10_32" function="internal">
        <lane id=":10_32_0" index="0" disallow="custom1" speed="9.92" length="8.38" width="3.20" shape="703.13,1593.30 709.54,1589.95 710.69,1589.96"/>
    </edge>
    <edge id=":10_33" function="internal">
        <lane id=":10_33_0" index="0" disallow="custom1" speed="10.83" length="7.17" width="3.20" shape="705.65,1595.28 709.60,1589.28"/>
    </edge>
    <edge id=":10_34" function="internal">
        <lane id=":10_34_0" index="0" disallow="custom1" speed="13.89" length="35.86" width="3.20" shape="705.65,1595.28 711.83,1587.50 717.48,1581.58 724.08,1577.04 733.11,1573.41"/>
    </edge>
    <edge id=":10_35" function="internal">
        <lane id=":10_35_0" index="0" disallow="custom1" speed="9.02" length="2.01" width="3.20" shape="705.65,1595.28 707.40,1594.28"/>
    </edge>
    <edge id=":10_51" function="internal">
        <lane id=":10_51_0" index="0" allow="custom1 custom2" speed="10.66" length="25.56" width="3.20" shape="712.05,1588.28 718.77,1588.53 729.14,1591.83 734.90,1597.31"/>
    </edge>
    <edge id=":10_52" function="internal">
        <lane id=":10_52_0" index="0" disallow="custom1" speed="9.79" length="14.07" width="3.20" shape="707.25,1587.19 707.36,1587.03 709.41,1581.77 709.29,1577.51 707.00,1574.26"/>
    </edge>
    <edge id=":10_53" function="internal">
        <lane id=":10_53_0" index="0" disallow="custom1" speed="9.92" length="24.02" width="3.20" shape="710.69,1589.96 718.51,1590.02 726.97,1592.99 731.86,1598.32"/>
    </edge>
    <edge id=":10_54" function="internal">
        <lane id=":10_54_0" index="0" disallow="custom1" speed="10.83" length="19.27" width="3.20" shape="709.60,1589.28 710.57,1587.80 712.77,1581.40 712.26,1576.06 709.03,1571.78"/>
    </edge>
    <edge id=":10_55" function="internal">
        <lane id=":10_55_0" index="0" disallow="custom1" speed="9.02" length="24.54" width="3.20" shape="707.40,1594.28 710.97,1592.26 718.13,1592.19 724.85,1594.68 728.82,1599.32"/>
    </edge>
    <edge id=":1004_0" function="internal">
        <lane id=":1004_0_0" index="0" allow="custom1 custom2" speed="6.60" length="7.16" width="3.20" shape="747.85,1837.86 745.98,1837.55 744.31,1837.82 742.85,1838.66 741.59,1840.07"/>
    </edge>
    <edge id=":1004_1" function="internal">
        <lane id=":1004_1_0" index="0" allow="custom1 custom2" speed="18.28" length="24.50" width="3.20" shape="747.85,1837.86 741.00,1835.62 736.50,1833.30 732.86,1829.81 728.60,1824.02"/>
    </edge>
    <edge id=":1004_2" function="internal">
        <lane id=":1004_2_0" index="0" disallow="custom1" speed="8.12" length="3.44" width="3.20" shape="748.78,1834.80 745.84,1834.31 745.38,1834.38"/>
    </edge>
    <edge id=":1004_3" function="internal">
        <lane id=":1004_3_0" index="0" disallow="custom1" speed="13.89" length="22.33" width="3.20" shape="748.78,1834.80 742.54,1832.76 738.43,1830.65 735.11,1827.47 731.23,1822.20"/>
    </edge>
    <edge id=":1004_4" function="internal">
        <lane id=":1004_4_0" index="0" disallow="custom1" speed="9.40" length="4.17" width="3.20" shape="749.71,1831.74 745.70,1831.07 745.59,1831.09"/>
    </edge>
    <edge id=":1004_5" function="internal">
        <lane id=":1004_5_0" index="0" disallow="custom1" speed="13.89" length="20.15" width="3.20" shape="749.71,1831.74 744.08,1829.89 740.37,1828.00 737.37,1825.13 733.86,1820.37"/>
    </edge>
    <edge id=":1004_20" function="internal">
        <lane id=":1004_20_0" index="0" disallow="custom1" speed="8.12" length="7.81" width="3.20" shape="745.38,1834.38 743.22,1834.73 740.92,1836.05 738.94,1838.27"/>
    </edge>
    <edge id=":1004_21" function="internal">
        <lane id=":1004_21_0" index="0" disallow="custom1" speed="9.40" length="11.18" width="3.20" shape="745.59,1831.09 742.13,1831.64 739.00,1833.44 736.30,1836.47"/>
    </edge>
    <edge id=":1004_6" function="internal">
        <lane id=":1004_6_0" index="0" allow="custom1 custom2" speed="13.70" length="13.62" width="3.20" shape="741.76,1814.91 744.13,1818.12 746.17,1820.05 748.69,1821.31 752.50,1822.55"/>
    </edge>
    <edge id=":1004_7" function="internal">
        <lane id=":1004_7_0" index="0" allow="custom1 custom2" speed="12.72" length="14.01" width="3.20" shape="741.76,1814.91 744.95,1821.12 745.99,1827.38 745.87,1828.05"/>
    </edge>
    <edge id=":1004_8" function="internal">
        <lane id=":1004_8_0" index="0" disallow="custom1" speed="13.89" length="15.80" width="3.20" shape="739.13,1816.73 741.88,1820.46 744.23,1822.70 747.15,1824.17 751.57,1825.61"/>
    </edge>
    <edge id=":1004_9" function="internal">
        <lane id=":1004_9_0" index="0" disallow="custom1" speed="11.79" length="10.46" width="3.20" shape="739.13,1816.73 741.85,1822.03 742.58,1826.48"/>
    </edge>
    <edge id=":1004_10" function="internal">
        <lane id=":1004_10_0" index="0" disallow="custom1" speed="13.89" length="17.97" width="3.20" shape="736.49,1818.55 739.62,1822.80 742.30,1825.35 745.61,1827.03 750.64,1828.68"/>
    </edge>
    <edge id=":1004_11" function="internal">
        <lane id=":1004_11_0" index="0" disallow="custom1" speed="11.32" length="5.86" width="3.20" shape="736.49,1818.55 739.38,1823.66"/>
        <lane id=":1004_11_1" index="1" disallow="custom1" speed="10.79" length="4.44" width="3.20" shape="736.49,1818.55 738.52,1822.50"/>
    </edge>
    <edge id=":1004_22" function="internal">
        <lane id=":1004_22_0" index="0" allow="custom1 custom2" speed="12.72" length="12.90" width="3.20" shape="745.87,1828.05 744.87,1833.69 741.59,1840.07"/>
    </edge>
    <edge id=":1004_23" function="internal">