<?xml version="1.0" encoding="UTF-8"?>

<!-- generated on 2023-11-29 11:44:28.326079 by randomTrips.py v1_18_0+0000-03ecfdea036
<configuration>
    <net-file value="Grid1.net.xml"/>
    <output-trip-file value="trips.xml"/>
    <route-file value="routes.rou.xml"/>
    <end value="600.0"/>
    <period value="0.2"/>
</configuration>
-->

<!-- generated on 2023-11-29 11:44:28 by Eclipse SUMO duarouter Version 1.18.0
<configuration xmlns:xsi="http://www.w3.org/2001/XMLSchema-instance" xsi:noNamespaceSchemaLocation="http://sumo.dlr.de/xsd/duarouterConfiguration.xsd">

    <input>
        <net-file value="Grid1.net.xml"/>
        <route-files value="trips.xml"/>
    </input>

    <output>
        <output-file value="routes.rou.xml"/>
        <alternatives-output value="NUL"/>
    </output>

    <time>
        <begin value="0"/>
        <end value="600.0"/>
    </time>

    <report>
        <no-warnings value="true"/>
        <ignore-errors value="true"/>
        <no-step-log value="true"/>
    </report>

</configuration>
-->

<routes xmlns:xsi="http://www.w3.org/2001/XMLSchema-instance" xsi:noNamespaceSchemaLocation="http://sumo.dlr.de/xsd/routes_file.xsd">
	
<!-- Baseline 1 configurations -->
	<!-- <vType id="passenger-priority" vClass="passenger" length="5" maxSpeed="70" color="210,105,30"/>
	<vType id="cav-priority" vClass="custom1" length="5" maxSpeed="70" color="white"/>
    <vType id="rl-priority" vClass="passenger" length="5" maxSpeed="70" color="red"/>
	<vType id="heuristic-priority" vClass="passenger" length="5" maxSpeed="70" color="128,0,128"/>

    <vType id="passenger-default" vClass="passenger" length="5" maxSpeed="70" color="yellow"/>
    <vType id="rl-default" vClass="passenger" length="5" maxSpeed="70" color="green"/>
	<vType id="heuristic-default" vClass="passenger" length="5" maxSpeed="70" color="blue"/> -->
	
	<!-- Baseline 2 configurations -->
	<!-- <vType id="passenger-priority" vClass="custom2" length="5" maxSpeed="70" color="210,105,30"/>
	<vType id="cav-priority" vClass="custom1" length="5" maxSpeed="70" color="white"/>
    <vType id="rl-priority" vClass="custom2" length="5" maxSpeed="70" color="red"/>
	<vType id="heuristic-priority" vClass="custom2" length="5" maxSpeed="70" color="128,0,128"/>

    <vType id="passenger-default" vClass="custom2" length="5" maxSpeed="70" color="yellow"/>
    <vType id="rl-default" vClass="custom2" length="5" maxSpeed="70" color="green"/>
	<vType id="heuristic-default" vClass="custom2" length="5" maxSpeed="70" color="blue"/> -->
	
	<!-- Test configurations -->
	<!-- <vType id="passenger-priority" vClass="custom2" length="5" maxSpeed="70" color="210,105,30"/>
	<vType id="cav-priority" vClass="custom1" length="5" maxSpeed="70" color="white"/>
    <vType id="rl-priority" vClass="custom2" length="5" maxSpeed="70" color="red"/>
	<vType id="heuristic-priority" vClass="custom2" length="5" maxSpeed="70" color="128,0,128"/>

    <vType id="passenger-default" vClass="passenger" length="5" maxSpeed="70" color="yellow"/>
    <vType id="rl-default" vClass="passenger" length="5" maxSpeed="70" color="green"/>
	<vType id="heuristic-default" vClass="passenger" length="5" maxSpeed="70" color="blue"/> -->


	<vehicle id="RL_0" type="rl-priority" depart="0.0">
		<route edges="-1532 1524 1533 -1494 1357 1415 -523 -338 -123 125 -570 -492 -361 504 -505 -338 -123 -19 25 128 383 579 614 -608 -577 -383 -128 -25 17 38 319 639 876 -1535 -1533 -1524 1526 1883 -1783 -1517 -1429 -1363 1359 -876 -639 -319 -117 -15 -3 7 333 -138 -25 19 123 338 517 -588 -325 -117 -15 -3 7 679 -696 -11 3 15 119 330 -732 -625 -319 313 -326 -121 125 344 365 569 1391 -1388 -533 -365 -344 -125 121 326 -313 319 625 732 -330 -119 117 319 639 880 -1767 -1493 -1425 1415 -589 -325 -38 -17 19 123 338 523 -1415 -1357 1494 -1447 -1373 1359 -876 -639 -319 325 588 -517 523 -589 -325 -117 -15 -3 11 728 1029 -1005 -612 -577 -383 -128 -25 17 38 319 639 876 -1359 1363 1429 1523 -1774 -1501 -1429 -1363 1359 -876 -639 -319 -117 -15 -3 11 696 -679 333 -138 126 -570 -492 -361 -336 -123 -19 -9 7 333 -138 128 383 579 613 -585 -210 -25 17 38 319 625 734 1033 -882 880 1357 1415 -523 -338 336 504 -505 517 -588 -325 -117 -15 13 -17 25 210 -381 -128 -25 17 38 319 625 732 -330 -119 117 313 -326 -121 125 344 -349 -210 -25 17 38 319 639 880 1357 1425 1493 1767 1494 -1447 -1427 1429 1517 1783 -1883 -1526 1524 1533 -1494 1357 1415 -523 -338 -123 125 344 365 535 601 -585 -210 -25 17 38 319 639 876 -1535 -1494 1357 1415 -523 -338 -123 -19 25 128 383 579 613 -585 -210 -25 17 38 319 639 880 1357 1415 -523 -338 -123 -19 -9 11 696 -679 -7 9 17 -13 -3 9 17 38 -117 -15 13 38 319 639 876 -1359 1363 1429 1523 -1774 -1501 -1429 1427 1447 -1494 1357 1425 1493 1767 1357 1415 -523 -338 -123 125 344 379 570 -126 128 381 -210 -25 17 38 319 623 730 880 1357 1415 -523 505 -504 -336 -123 -19 25 210 349 -344 -570 -379 -349 -210 128 381 349 -344 -125 123 338 523 -1415 -1357 1494 -1447 -1427 1429 1501 1774 -1523 -1429 -1363 1359 -876 -639 -319 -38 -17 25 128 383 577 608 -614 -579 -383 -128 -25 17 38 319 639 876 -1359 1363 1429 1499 1769 -1517 1501 1775 -1771 -1499 -1429 -1363 1359 -876 -639 -319 -38 -17 25 210 585 -601 -535 -365 -344 -570 -379 -344 -125 121 326 -313 319 639 882 1323 1359 -876 -639 -319 -38 -17 25 128 381 585 -613 -579 -383 -128 -25 17 38 319 639 880 1357 1425 1493 1767 1494 -1447 -1427 1429 1499 1771 -1775 -1501 -1429 1427 1447 -1494 1357 1415 -523 -338 -123 121 -64 -17 19 123 336 504 -505 517 -588 -325 -117 119 330 -732 734 1033 1323 1363 1429 1499 1771 -1775 -1501 -1429 -1363 1359 -876 -639 -319 313 -326 -121 125 344 365 535 601 -585 -210 -25 17 64 326 -116 -17 25 126 -125 121 326 -313 319 639 876 -1359 1363 1429 1517 1783 -1883 -1526 -1431 -1373 1359 -1535 -1447 -1427 1429 1499 1771 -1775 -1501 -1429 -1363 1359 -876 -639 -319 -117 -15 -3 7 679 -696 -11 3 15 117 319 639 876 -1535 -1533 -1524 1526 1883 -1783 -1517 -1429 -1363 1359 -876 -639 -319 -117 -15 13 -17 -9 11 728 1029 1093 1343 -1199 -1027 -698 -11 9 25 128 381 349 -344 -125 123 338 523 -589 -325 313 -326 -121 123 338 517 -588 -325 319 639 876 -1359 1363 1429 1501 1774 -1523 -1429 -1363 1359 -876 -639 -319 313 -326 -121 -19 17 38 325 589 -1415 -1357 -1767 -1493 -1425 1415 -523 -338 -123 125 344 -349 585 -613 -579 577 608 -614 -579 -383 -128 -25 17 38 319 639 876 -1535 -1533 -1524 1526 1883 -1783 -1517 -1429 -1363 1359 -876 -639 -319 -117 -15 -3 9 19 121 -64 -13 -3 11 728 1029 1093 1343 -1199 -1027 -698 -11 9 19 125 344 365 569 1391 -1388 -533 -365 -344 -125 123 338 517 -588 589 -523 -338 -123 -19 -9 7 356 -348 -138 -25 17 38 319 639 876 -1535 -1533 -1524 1526 1883 -1783 -1517 -1429 -1363 1359 -876 -639 -319 313 -326 -121 125 -570 -379 -349 -210 -25 17 38 319 625 732 837 -674 -592 -332 -119 117 313 -326 -121 125 344 365 535 601 -585 -210 -25 -9 3 13 -17 25 138 348 -356 -7 3 13 64 326 -116 64 -121 123 338 505" />
	</vehicle>
	<vehicle id="RL_1" type="rl-priority" depart="0.0">
		<route edges="1093 1342 -1011 -612 -577 -383 381 349 365 533 1388 -1391 -569 -365 -344 -125 123 338 523 -1415 -1357 1494 -1447 1431 1524 1533 -1494 1357 1415 -523 -338 -123 125 -570 -379 -349 -210 138 -333 679 -696 728 870 -679 -7 11 696 -679 333 -138 210 349 379 570 -125 121 326 -313 325 588 -517 -338 -123 -19 25 128 383 579 613 -585 -210 -25 17 38 319 639 876 -1359 1363 1429 1501 1774 -1523 1501 1775 -1771 -1499 -1429 -1363 1359 -876 -639 -319 313 -326 -121 125 -126 128 381 -210 138 -333 679 -870 1029 -1005 -612 -577 -383 -128 138 -333 679 -696 -11 3 15 117 325 588 -517 -338 -123 125 -570 -379 -344 -125 -19 -9 11 728 1029 -1005 -612 -577 -383 -128 -25 19 121 326 -313 325 589 -1415 1425 1493 1767 -880 882 1323 1359 -876 -639 -319 -117 -15 -3 11 728 1029 1093 1343 -1199 -1027 -698 -11 9 25 126 -125 -19 25 126 -125 123 338 523 -1415 -1357 1494 -1447 1441 1533 -1494 1357 1415 -523 -338 -123 121 326 -116 64 -121 125 344 379 570 -125 121 326 -313 319 639 876 -1535 -1494 1357 1415 -523 -338 336 361 492 570 -125 121 -64 38 319 625 732 -330 -119 117 325 588 -517 505 -504 -336 338 523 -1415 -1357 1494 -1533 -1524 1526 1883 -1783 -1517 -1429 -1363 1373 -1427 1429 1523 -1774 -1501 -1429 -1363 1359 -876 -639 -319 -38 64 326 -313 -38 116 -326 -64 -17 25 128 381 -210 -25 17 38 319 639 882 -1033 -734 -625 -319 -38 -17 25 210 -381 -128 -25 17 38 319 625 732 837 -674 -592 -332 -119 -15 -3 11 698 1027 1199 -1343 -1093 -1029 -728 -11 9 17 -13 -3 9 25 126 -125 121 326 -313 319 639 876 -1359 1373 1447 1535 -876 -639 -319 -38 -17 25 126 344 -349 -381 383 577 612 1005 -1029 -728 -11 3 15 117 319 639 876 -1359 1363 1429 1499 1771 -1775 -1501 -1429 -1363 -1323 -1033 -734 732 837 -674 -592 -332 -119 -15 13 38 -117 119 330 -732 734 1033 1323 1363 1429 1501 1773 -1798 -1523 -1429 -1363 1359 -876 -639 -319 -117 -15 -3 11 728 1029 1093 1343 -1199 -1027 -698 -11 9 25 128 383 577 612 1005 -1029 -728 -11 3 15 117 319 639 876 -1535 -1447 1441 1533 -1494 1357 1415 -523 -338 -123 125 344 365 569 1391 -1388 -533 -365 -344 -125 121 326 -313 319 639 882 1323 1359 -876 -639 -319 -38 116 -326 -121 125 344 365 569 1391 -1388 -533 -365 -349 -381 383 577 612 1011 -1342 -1093 -1029 870 -679 333 348 -356 333 -138 128 383 579 614 -608 -577 -383 -128 -25 17 38 319 639 876 -1359 1363 1429 1517 1783 -1883 -1526 1524 1533 -1494 1357 1415 -523 505 -504 -336 -123 -19 -9 7 356 -348 -138 -25 17 38 319 639 876 -1359 1363 1429 1499 1771 -1775 -1501 -1429 -1363 1359 -876 -639 -319 313 -326 -64 -13 15 119 332 592 674 -837 -330 -119 -15 13 -17 25 210 585 -613 -579 -383 -128 -25 17 38 319 639 876 -1535 -1533 -1524 1526 1883 -1783 -1517 -1429 -1363 1359 -876 -639 -319 -117 -15 -3 7 333 -138 126 -570 -492 -361 -336 338 523 -1415 -1357 -880 -730 -623 -319 -117 -15 -3 11 698 1027 1199 -1343 -1093 -1005 -612 -577 -383 -128 -25 17 38 319 625 732 837 -674 -592 -332 -119 -15 13 -17 25 128 383 577 612 1005 -1029 -728 -11 3 15 117 319 639 876 -1359 1363 1429 1501 1774 -1523 -1429 1427 1447 1535 -1359 -1323 -882 -639 -319 -38 -17 -9 3 15 117 325 589 -1415 -1357 -880 -639 -319 -38 -17 25 210 349 365 569 1391 -1388 -533 -365 -344 -125 121 326 -313 319 639 876 -1359 1363 1429 1501 1775 -1771 -1499 -1429 1427 1447 -1494 1357 1415 -523 -338 -123 125 -570 -492 -361 -336 338 517 -588 -325 319 639 876 -1535 -1447 1441 1533 -1494 1357 1415 -523 -338 -123 125 344 365 533 1388 -1391 -569 -365 -344 -125 121 -64 38 313 -326 -121 125 344 -349 -381 383 579 613 -585 349 -344 -125 123 338 523 -1415 -1357 1494 1535 -1359 -1323 -882 -639 -319 -38 -17 25 210 585 -601 -535 -365 -344 -125 121 326 -313 319 625 732 837 -674 -592 -332 330 -732 734 1033 1323 1363 1429 1523 1798 -1773 -1501 -1429 -1363 1359 -876 -639 -319 325 589 -1415 -1357 1494 1535 -876 -639 -319 -117 -15 -3 11 696 -679 -7 11 698 1027 1199 -1343" />
	</vehicle>
	<vehicle id="RL_2" type="rl-priority" depart="0.0">
		<route edges="3 13 -17 25 128 383 579 613 -585 349 -344 -125 121 326 -116 38 319 639 876 -1535 -1447 -1373 -1323 -1033 -734 732 837 -674 -592 -332 -119 117 319 639 876 -1535 -1447 -1373 1359 -876 -639 -319 -38 -17 25 210 585 -613 614 -608 612 1005 1093 1342 -1011 1005 -1029 -728 -11 9 19 123 338 523 -589 588 -517 523 -1415 -1357 -880 876 -1359 1363 1429 1523 -1774 -1501 -1429 -1363 1359 -876 -639 -319 313 -326 -121 125 344 365 535 601 -585 -210 -25 -9 3 15 117 319 639 876 -1359 1363 1429 1501 1775 -1771 -1499 -1429 -1363 1359 -876 -639 -319 -38 -13 15 117 319 639 876 -1359 1363 1429 1501 1774 -1523 -1429 1427 -1373 -1323 -1033 -734 732 -330 332 592 674 -837 -330 -119 117 313 -326 -121 125 344 379 570 -126 138 348 -356 679 -696 698 1027 1199 -1343 -1093 -1029 870 -696 -11 3 13 64 -121 -19 25 128 383 579 614 -608 -577 -383 -128 -25 19 123 336 504 -505 -338 -123 -19 -9 11 698 1027 1199 -1343 -1093 -1005 -612 -577 -383 -128 -25 17 38 319 639 882 -1033 -734 -625 -319 -117 -15 -3 11 696 -679 -7 9 19 125 -570 -379 -349 585 -613 614 -608 612 1005 -1029 -728 -11 3 15 117 319 639 876 -1535 -1533 -1524 -1431 1447 1535 -876 -639 -319 -117 -15 -3 7 333 -138 -25 17 116 -313 325 589 -1415 1425 1493 1767 1357 1415 -523 -338 -123 -19 25 138 348 -356 -7 3 15 117 319 639 -730 -623 639 876 -1359 1363 1429 1517 1783 -1883 -1526 1524 1533 1535 -876 -639 -319 -38 -17 19 125 -126 138 -333 679 -696 -11 9 25 210 585 -601 -535 -365 -344 -125 121 326 -313 319 625 732 -330 -119 117 313 -326 -121 -19 17 38 319 639 882 -1033 -734 -625 -319 -117 -15 -3 11 698 1027 1199 -1343 -1093 -1029 -728 -11 3 15 117 319 639 876 -1359 1363 1429 1517 1783 -1883 -1526 1524 1533 -1494 1357 1415 -523 505 -504 -336 338 517 -588 -325 -38 -17 25 128 383 577 608 -614 613 -601 -535 533 1388 -1391 -569 535 601 -585 -210 128 381 585 -601 -535 -365 -344 -125 123 338 523 -1415 1425 1493 1767 1357 1415 -523 -338 -123 -19 25 128 383 577 612 1005 -1029 -728 -11 3 15 117 319 639 876 -1359 1363 1429 1499 1771 -1775 -1501 -1429 1427 1447 -1494 -1767 -1493 -1425 1415 -523 -338 -123 121 -64 38 319 625 732 837 -674 -592 -332 330 -732 734 1033 1323 1363 1429 1501 1774 -1523 -1429 -1363 1359 -876 -639 -319 -117 -15 -3 11 696 -679 -7 9 25 210 585 -601 -535 -365 -344 -125 -19 25 126 -125 123 338 523 -1415 -1357 1494 -1447 -1373 1359 -876 -639 -319 313 -326 -121 125 344 365 533 1388 -1391 -569 -365 -344 -125 121 326 -313 319 639 876 -1359 1363 1429 1523 1798 -1773 -1501 -1429 -1363 1359 -876 -639 -319 -117 -15 -3 9 19 123 338 523 -1415 -1357 -880 876 -1535 -1494 1357 1425 1493 1767 1357 1415 -523 -338 -123 125 344 -349 585 -601 -535 -365 -349 585 -613 -579 -383 -128 -25 17 38 319 639 876 -1535 -1447 -1427 -1363 1359 -876 -639 -319 -38 -17 25 210 585 -613 -579 -383 381 -210 128 383 579 614 -608 612 1005 1093 1343 -1199 -1027 -698 -11 3 13 64 326 -116 38 -117 -15 13 38 319 639 876 -1535 -1494 -880 876 -1359 1373 -1427 -1363 -1323 -1033 -734 732 837 -674 -592 -332 330 -732 734 1033 1323 1359 -876 -639 -319 -38 -17 25 210 -381 -128 -25 17 38 319 639 876 -1359 1363 1429 1523 -1774 -1501 -1429 -1363 1359 -876 -639 -319 313 -326 -121 125 344 -349 -210 -25 -9 3 13 -17 -9 7 679 -696 -11 3 15 117 319 639 876 -1359 1363 1429 1501 1774 -1523 -1429 -1363 1359 -876 -639 -319 313 -326 -121 125 -570 -492 -361 -336 338 523 -589 588 -517 -338 336 504 -505 -338 -123 -19 17 38 325 589 -1415 1425 1493 1767 1357 1415 -523 -338 -123 -19 25 128 383 579 614 -608 -577 -383 -128 -25 17 38 319 639 876 -1359 1363 1429 1517 -1769 -1499 -1429 -1363 -1323 -1033 -734 732 -330 332 592 674 -837 -330 -119 -15 13 -17 25 210 349 -344 -125 123 338 523 -589 588 -517 -338 -123 121 326 -313 -38" />
	</vehicle>
	<vehicle id="RL_3" type="rl-priority" depart="0.0">
		<route edges="492 570 344 379 570 -126 128 383 577 612 1005 1093 1343 -1199 -1027 -698 -11 9 25 138 -333 679 -870 1029 1093 1342 -1011 1005 -1029 -728 -11 3 15 117 325 588 -517 -338 -123 -19 -9 11 698 1027 1199 -1343 -1093 -1029 -728 -11 3 15 117 -38 116 -313 319 639 876 -1535 -1447 1441 1533 -1494 -1767 -1493 -1425 1415 -589 -325 -38 -13 15 117 319 639 876 -1359 1363 1429 1517 1783 -1883 -1526 1524 1533 1535 -876 -639 -319 -38 -17 25 128 383 577 608 -614 613 -601 -535 -365 -349 -210 -25 19 121 -64 -13 -3 11 696 -870 1029 1093 1342 -1011 1005 -1029 -728 -11 3 15 119 330 -732 -625 -319 -38 -17 19 121 326 -313 319 639 876 -1359 1363 1429 1517 -1769 -1499 -1429 -1363 -1323 -882 -639 625 732 -330 332 592 674 -837 -330 -119 -15 -3 11 728 1029 -1005 -612 -577 -383 381 349 379 -492 -361 -336 338 523 -1415 -1357 1494 -1447 -1427 1429 1523 1798 -1773 1775 -1771 -1499 -1429 1427 1431 1526 1883 -1783 -1517 -1429 -1363 1359 -876 -639 -319 -38 -17 25 210 585 -613 -579 -383 -128 138 348 -356 333 -138 -25 17 38 319 639 876 -1359 1363 1429 1517 -1769 -1499 -1429 -1363 1359 -876 -639 -319 -117 -15 -3 11 696 -679 333 -138 128 383 579 613 -601 -535 569 1391 -1388 -533 -365 -344 -125 -19 -9 11 698 1027 1199 -1343 -1093 -1029 -728 -11 3 15 117 325 588 -517 -338 -123 -19 -9 11 696 -679 -7 3 15 117 319 639 876 -1535 -1533 -1524 1526 1883 -1783 -1517 -1429 1427 1441 1533 1535 -876 -639 625 732 837 -674 -592 -332 -119 -15 -3 11 728 1029 -1005 -612 608 -614 -579 -383 -128 -25 17 38 319 639 876 -1359 1363 1429 1501 1774 -1523 -1429 -1363 1359 -876 -639 -319 -117 -15 -3 11 728 870 -696 -11 3 15 117 319 639 876 -1359 1363 1429 1517 1783 -1883 -1526 1524 1533 1535 -876 -639 -319 -38 -17 25 128 383 579 613 -601 -535 569 1391 -1388 -533 -365 -344 -125 -19 -9 3 15 117 319 639 876 -1359 1363 1429 1517 1783 -1883 -1526 1524 1533 1535 -876 -639 -319 -38 -17 25 210 585 -613 -579 -383 -128 -25 17 38 319 639 876 -1359 1363 1429 1517 -1769 -1499 -1429 -1363 1359 -876 -639 -319 -38 -17 25 126 -125 123 338 517 -588 -325 -38 -17 25 210 585 -601 -535 -365 -344 -125 -19 -9 11 698 1027 1199 -1343 -1093 -1029 -728 -11 3 15 117 319 639 876 -1535 -1447 -1427 -1363 -1323 -1033 -734 732 -330 332 592 674 -837 -732 734 1033 1323 1359 -876 -639 -319 -38 -17 25 210 -381 -128 -25 17 38 319 639 876 -1359 1373 1447 -1494 1357 1415 -523 -338 -123 125 344 365 533 1388 -1391 -569 -365 -349 -381 383 577 612 1005 1093 1343 -1199 -1027 -698 -11 3 15 117 319 639 876 -1535 -1533 -1524 1526 1883 -1783 -1517 -1429 -1363 1359 -876 -639 -319 313 -326 -121 125 344 365 569 1391 -1388 -533 -365 -344 -125 121 326 -313 319 639 876 -1359 1363 1429 1499 1771 -1775 -1501 -1429 -1363 1359 -876 -639 -319 -117 -15 -3 7 679 -696 -11 3 13 64 326 -116 64 -121 125 344 -349 -210 -25 17 38 -117 -15 13 64 -121 123 338 523 -1415 -1357 1494 -1447 -1427 1429 1499 1769 -1517 -1429 -1363 1359 -876 -639 -319 313 -326 -121 125 -570 -492 -361 -336 -123 -19 -9 7 679 -696 -11 3 15 117 319 639 -730 -623 -319 -38 -17 25 128 383 579 614 -608 -577 -383 -128 -25 17 38 319 623 730 -639 -319 -38 -17 -9 11 728 1029 -1005 -612 608 -614 -579 -383 -128 -25 17 38 319 639 876 -1359 1363 1429 1517 1783 -1883 -1526 1524 1533 1535 -876 -639 -319 -38 -17 25 210 585 -601 -535 -365 -344 -125 121 326 -313 325 588 -517 -338 -123 -19 -9 11 698 1027 1199 -1343 -1093 -1029 -728 -11 3 15 117 319 639 876 -1535 -1533 -1441 1447 -1494 1357 1415 -589 -325 -117 -15 13 64 -121 125 -570 -379 365 533 1388 -1391 -569 -365 -349 -210 138 -333 356 -348 -333 -7 3 15 119 330 837 -674 -592 -332 330 -732 734 1033 1323 1363 1429 1501 1774 -1523 -1429 -1363 1359 -876 -639 -319 -38 -17 25 128 383 577 608 -614 -579 -383 -128 -25 19 123 338 523 -589 588 -517 -338 336 504 -505 -338 -123 125 344 -349 -381 383 577 612 1005 1093 1343 -1199 -1027 -698 -11 3 15 117 319 639 876 -1359 1363 1429 1523 -1774 -1501 -1429 -1363 -1323 -1033 -734 -625 -319 -38 -17 25 126 -125 121 326 -313 319 639 876 -1359 1363 1429 1499 1771 -1775 -1501 -1429 1427 1447 -1494 1357 1415 -523 -338 -123 -19 -9 11 728 870" />
	</vehicle>
	<vehicle id="RL_4" type="rl-priority" depart="0.0">
		<route edges="-17 25 128 383 577 612 1005 -1029 -728 -11 3 15 117 319 639 880 1357 1415 -523 -338 -123 125 -570 -379 -344 -125 123 336 361 492 570 -125 121 326 -313 319 639 876 -1359 1363 1429 1501 1774 -1523 -1429 1427 1447 -1494 1357 1425 1493 1767 -880 -639 -319 -117 -15 -3 11 728 1029 -1005 1011 -1342 -1093 -1029 -728 -11 3 15 117 319 639 880 1357 1415 -523 -338 -123 125 344 -349 585 -613 -579 -383 -128 -25 19 123 336 361 492 570 344 379 570 344 365 533 1388 -1391 -569 -365 -344 -125 123 338 523 -1415 -1357 -1767 -1493 -1425 -1357 1494 -1533 -1524 -1431 1447 1535 -876 -639 623 730 -639 -319 313 -326 -121 123 336 361 492 570 -126 128 381 -210 138 -333 679 -870 1029 -1005 -612 -577 -383 -128 -25 19 123 336 361 492 570 -126 138 -333 679 -870 -728 696 -870 -728 -11 3 15 117 319 625 734 1033 -882 880 1357 1415 -589 -325 -38 -17 25 128 383 579 613 -585 -210 -25 17 38 319 639 876 -1359 1363 1429 1501 1773 -1798 -1523 -1429 1427 1447 -1494 1357 1415 -523 -338 336 504 -505 -338 -123 -19 25 138 348 -356 -7 3 15 117 319 639 876 -1535 -1533 -1441 1447 -1494 1357 1415 -523 -338 -123 121 326 -313 319 639 876 -1535 -1533 -1524 -1431 1441 1533 1535 -876 -639 625 734 1033 -882 -639 -319 -38 -13 15 117 319 639 876 -1535 -1533 -1524 1526 1883 -1783 -1517 -1429 1427 1447 -1494 1357 1425 1493 1767 1494 -1447 -1427 1429 1523 -1774 -1501 -1429 -1363 1359 -876 -639 -319 -117 -15 -3 9 17 38 325 588 -517 -338 336 504 -505 517 -588 589 -1415 -1357 -1767 -1493 -1425 1415 -523 517 -588 -325 319 639 876 -1359 1363 1429 1523 -1774 -1501 1499 1771 -1775 -1501 -1429 -1363 1359 -876 -639 -319 -38 -17 25 210 585 -613 614 -608 -577 -383 -128 -25 -9 7 679 -696 -11 3 15 117 319 639 876 -1535 -1533 -1524 1526 1883 -1783 -1769 -1499 -1429 -1363 1359 -876 -639 -319 -38 -13 15 117 319 639 876 -1359 1363 1429 1501 1774 -1523 -1429 -1363 1359 -876 -639 -319 -38 -17 25 210 585 -613 -579 -383 -128 -25 19 123 336 504 -505 -338 336 361 492 570 -125 123 338 517 -588 -325 -117 -15 -3 11 728 1029 -1005 -612 -577 579 614 -608 612 1005 1093 1343 -1199 -1027 -698 -11 9 25 210 585 -601 -535 -365 -349 -381 383 577 612 1005 1093 1343 -1199 -1027 -698 728 1029 -1005 -612 608 -614 -579 -383 -128 -25 17 38 319 639 882 1323 1359 -1535 -1533 -1524 1526 1883 -1783 -1517 -1429 1427 1447 1535 -876 880 1357 1415 -523 505 -504 -336 -123 -19 -9 7 356 -348 -138 -25 17 38 319 639 876 -1359 1363 1429 1517 1783 -1883 -1526 1524 1533 1535 -876 -639 -319 -117 -15 -3 11 698 1027 1199 -1343 -1093 -1029 -728 -11 3 15 117 319 639 876 -1359 1363 1429 1517 1783 -1883 -1526 1524 1533 -1494 1357 1415 -523 -338 -123 125 344 365 569 1391 -1388 -533 -365 -344 -125 121 326 -313 319 639 876 -1359 1363 1429 1517 1783 -1883 -1526 1524 1533 1535 -876 -639 -319 -38 -17 25 210 585 -613 -579 577 612 1011 -1342 -1093 -1029 -728 -11 3 15 117 319 639 876 -1359 1363 1429 1499 1769 -1517 -1429 -1363 -1323 -1033 -734 732 -330 -119 117 313 -326 -121 125 -570 -379 -344 -125 121 326 -313 319 639 876 -1359 1363 1429 1501 1775 -1771 -1499 -1429 1427 1447 -1494 -880 -639 625 732 -330 332 592 674 -837 -330 -119 -15 -3 11 728 1029 1093 1343 -1199 -1027 -698 -11 9 19 125 344 365 569 1391 -1388 -533 -365 -344 -125 121 326 -313 319 625 732 -330 -119 -15 13 -17 19 121 326 -313 -38 116 -326 -64 -13 15 119 332 592 674 -837 -330 -119 -15 13 -17 25 138 348 -356 333 -138 128 383 579 614 -608 612 1005 -1029 870 -696 -11 9 19 123 338 523 -1415 1425 1493 1767 1494 -1533 -1524 1526 1883 -1783 -1517 -1429 -1363 1359 -876 882 1323 1359 -1535 -1494 1357 1415 -523 517 -588 -325 -117 -15 -3 11 728 1029 1093 1342 -1011 1005 -1029 -728 -11 3 15 117 319 639 876 -1359 1363 1429 1501 1774 -1523 -1429 -1363 1359 -876 -639 -319 -117 -15 -3 11 698 1027 1199 -1343 -1093 -1029 -728 -11 3 15 117 -38 -17 25 126 -125 123 336 504 -505 -338 -123 121 326 -313 319 639 876 -1359 1363 1429 1499 1769 -1517 -1429 1427 1447 -1494 1357 1415 -523 505 -504 -336 -123 -19 -9 11 698 1027 1199" />
	</vehicle>
	<vehicle id="RL_5" type="rl-priority" depart="0.0">
		<route edges="1027 1199 -1343 -1093 -1029 -728 -11 9 17 -13 -3 11 696 -679 -7 3 15 117 319 639 876 -1359 1363 1427 -1373 1363 1429 1499 1771 -1775 -1501 -1429 -1363 1359 -876 -639 -319 313 -326 -64 38 319 639 876 -1535 -1533 -1524 1526 1883 -1783 -1517 -1429 -1363 1359 -876 -639 -319 -117 -15 -3 11 696 -870 -728 -11 3 15 117 319 639 876 -1359 1363 1427 -1373 1363 1429 1501 1775 -1771 -1499 -1429 -1363 1359 -876 882 -1033 -734 732 -330 -119 117 319 625 732 837 -674 -592 -332 -119 -15 -3 7 333 -138 -25 17 64 -121 123 338 523 -589 588 -517 523 -1415 -1357 1494 -1447 1431 1524 1533 -1494 1357 1415 -589 588 -517 523 -589 -325 -38 -17 25 210 349 -344 -126 128 383 577 612 1011 -1342 -1093 -1029 870 -679 356 -348 -333 -7 9 19 123 336 504 -505 517 -588 -325 -117 119 332 592 674 -837 -732 -625 639 876 -1359 -1323 -882 876 -1359 1363 1429 1517 1783 -1883 -1526 1524 1533 1535 -876 -639 -319 -117 -15 -3 11 696 -679 -7 9 19 121 -64 -13 -3 9 17 38 319 625 734 1033 -882 -639 -319 -38 -17 25 128 383 577 612 1005 -1029 -728 -11 3 13 38 325 589 -1415 -1357 -1767 -1493 -1425 1415 -523 -338 336 504 -505 523 -1415 -1357 1494 -1447 -1427 1429 1523 1798 -1773 -1501 -1429 -1363 1359 -876 -639 -319 -117 -15 -3 11 728 1029 -1005 -612 -577 -383 -128 -25 17 38 319 639 876 -1535 -1533 -1524 1526 1883 -1783 -1517 -1429 -1363 1359 -876 -639 -319 -117 -15 -3 11 728 1029 -1005 1011 -1342 1343 -1199 -1027 -698 -11 3 15 119 330 -732 -625 -319 325 588 -517 -338 -123 121 326 -313 319 639 880 -1767 -1493 -1425 1415 -523 -338 -123 -19 -9 11 696 -679 -7 3 15 117 319 625 732 -330 -119 117 319 639 876 -1359 1363 1429 1517 1783 -1883 -1526 1524 1533 -1494 1357 1425 1493 1767 -880 -639 625 734 1033 1323 1363 1429 1499 1771 -1775 -1501 -1429 -1363 1359 -1535 -1447 -1427 1429 1523 1798 -1773 -1501 -1429 -1363 -1323 -882 876 -1359 1363 1429 1499 1769 -1517 -1429 -1363 1359 -876 880 1494 1535 -1359 1363 1429 1517 1783 -1883 -1526 1524 1533 -1494 1357 1415 -523 -338 336 361 492 570 -125 121 326 -313 319 625 734 1033 -882 876 -1535 -1494 -880 -639 -319 -117 -15 -3 9 25 128 383 579 614 -608 -577 -383 -128 -25 19 123 338 523 -1415 -1357 -880 -639 -319 313 -116 38 319 639 882 -1033 -734 -625 -319 325 589 -523 -338 -123 -19 -9 11 698 1027 1199 -1343 -1093 -1029 -728 -11 9 19 123 338 517 -588 -325 319 639 882 1323 1359 -1535 -1494 1357 1415 -523 -338 336 361 492 570 -125 121 326 -313 319 639 876 -1359 1363 1429 1517 1783 -1883 -1526 -1431 1447 -1494 1357 1415 -523 -338 336 361 492 570 -125 123 338 523 -1415 -1357 1494 1535 -876 880 1357 1415 -523 505 -504 -336 338 517 -588 -325 319 625 732 837 -674 -592 -332 330 -732 734 1033 1323 1363 1429 1517 -1769 -1499 1501 1775 -1771 1769 -1517 -1429 -1363 1359 -876 -639 -319 -117 -15 -3 11 698 1027 1199 -1343 -1093 -1029 -728 -11 3 15 119 332 592 674 -837 -732 734 1033 1323 1363 1429 1517 -1769 -1499 -1429 -1363 1359 -876 -639 -319 313 -326 -121 125 -570 -379 -344 -125 121 326 -313 319 639 882 -1033 -734 -625 -319 -38 -17 25 210 585 -613 -579 -383 -128 138 348 -356 333 -138 210 585 -613 -579 -383 -128 -25 17 38 319 639 876 -1359 1363 1429 1499 1769 -1517 -1429 -1363 1359 -876 -639 -319 313 -326 -121 125 344 365 535 601 -585 -210 -25 17 -13 15 119 330 -732 -625 639 876 -1535 -1447 -1373 1363 1429 1517 1783 -1883 -1526 1524 1533 -1494 1357 1415 -523 -338 -123 125 344 365 569 1391 -1388 -533 -365 -349 -381 383 577 612 1005 1093 1342 -1011 1005 -1029 -728 698 1027 1199 -1343 -1093 -1029 -728 -11 3 13 64 326 -313 319 639 876 -1535 -1447 1431 1524 1533 1535 -876 -639 -319 -38 -17 25 138 -333 -7 9" />
	</vehicle>
	<vehicle id="RL_6" type="rl-priority" depart="0.0">
		<route edges="588 -517 523 -1415 -1357 1494 1535 -1359 1363 1427 -1373 -1323 -1033 -734 732 -330 -119 -15 13 -17 25 210 585 -613 -579 -383 -128 -25 17 38 319 639 876 -1535 -1447 1441 1533 1535 -876 -639 -319 -38 -17 25 138 348 -356 333 -138 210 349 -344 -125 121 326 -313 -117 119 330 -732 734 1033 1323 1373 -1427 -1363 1359 -876 -639 -319 313 -116 38 319 639 882 -1033 -734 -625 -319 313 -326 -121 125 -570 -492 -361 -336 -123 121 326 -313 325 588 -517 -338 -123 125 344 -349 585 -613 -579 -383 -128 -25 17 38 319 639 876 -1359 1363 1427 1447 -1494 1357 1415 -523 -338 -123 125 344 379 570 -126 210 349 -344 -125 121 326 -313 325 588 -517 -338 -123 -19 25 128 383 577 612 1005 -1029 -728 -11 3 15 117 319 639 876 -1359 1363 1429 1499 1771 -1775 -1501 -1429 -1363 1359 -876 -639 623 730 -639 -319 -117 -15 -3 11 728 1029 -1005 -612 -577 -383 381 585 -613 -579 -383 -128 -25 19 121 -64 -17 19 125 344 365 533 1388 -1391 -569 -365 -349 -381 383 577 612 1011 -1342 -1093 -1029 -728 -11 3 15 117 319 639 876 -1535 -1533 -1524 1526 1883 -1783 -1517 -1429 -1363 1359 -876 -639 -319 313 -116 38 313 -326 -121 125 344 379 570 344 -349 585 -613 -579 -383 -128 -25 17 -13 15 119 332 592 674 -837 -330 -119 -15 -3 11 728 1029 1093 1342 -1011 -612 608 -614 -579 -383 381 585 -613 614 -608 -577 -383 -128 -25 17 38 319 639 880 1357 1415 -523 -338 -123 -19 -9 11 728 1029 -1005 -612 -577 -383 -128 -25 17 38 319 639 876 -1359 1363 1429 1501 1774 -1523 -1429 1427 -1373 1359 -1535 -1494 1357 1425 1493 1767 1357 1415 -523 517 -588 -325 319 639 876 -1359 1363 1429 1501 1774 -1523 -1429 -1363 1359 -876 -639 -319 -117 -15 -3 7 356 -348 -333 679 -870 -728 698 1027 1199 -1343 -1093 -1029 -728 -11 3 15 117 319 639 880 1494 1535 -876 -639 -319 -117 -15 -3 11 696 -679 -7 3 13 64 326 -116 38 319 625 732 -330 -119 -15 13 -17 25 210 349 -344 -125 121 326 -313 319 639 876 -1535 -1494 -880 -639 -319 325 588 -517 -338 -123 -19 17 -13 -3 11 698 1027 1199 -1343 -1093 -1005 -612 -577 -383 -128 126 344 -349 -210 126 344 379 570 -125 123 338 517 -588 589 -1415 -1357 1494 -1533 -1524 1526 1883 -1783 -1517 -1429 1427 1447 -1494 1357 1415 -523 -338 336 504 -505 -338 -123 -19 25 126 -125 121 326 -313 -117 119 330 -732 -625 -319 -38 -17 25 128 383 577 612 1005 -1029 -728 -11 3 15 119 332 592 674 -837 -330 -119 -15 -3 7 333 -138 -25 17 38 319 639 880 1357 1415 -589 -325 313 -116 -13 -3 11 728 1029 1093 1343 -1199 -1027 -698 -11 3 13 38 -117 -15 13 64 -121 125 -570 -492 -361 -336 -123 -19 -9 11 696 -679 -7 9 19 123 338 523 -1415 1425 1493 1767 1357 1415 -523 -338 -123 125 344 365 535 601 -585 -210 -25 17 38 319 639 876 -1359 1363 1429 1523 1798 -1773 -1501 -1429 1427 1447 -1494 1357 1415 -523 505 -504 -336 338 523 -1415 -1357 1494 -1533 -1441 1447 1535 -876 -639 -319 -117 -15 -3 11 696 -870 -728 -11 3 15 117 319 639 880 1494 1535 -876 -639 -319 -117 -15 -3 7 356 -348 -333 679 -870 1029 1093 1343 -1199 -1027 -698 -11 3 15 117 319 639 880 1357 1415 -589 -325 -117 119 332 592 674 -837 -330 -119 -15 13 116 -313 319 639 882 1323 1359 -1535 -1494 1357 1415 -523 505 -504 -336 -123 -19 -9 11 728 1029 1093 1342 -1011 -612 -577 -383 -128 126 344 -349 -381 383 577 612 1005 1093 1342 -1011 1005 -1029 -728 -11 3 15 117 319 639 882 1323 1359 -1535 -1494 -1767 -1493 -1425 1415 -589 -325 313 -326 -64 -13 -3 11 728 870 -679 333 -138 126 -570 -492 -361 -336 338 523 -1415 -1357 1494 -1447 -1427 1429 1499 1769 -1517 -1429 1427 1441 -1524 1526 1883 -1783 -1517 -1429 -1363 1359 -876 -639 -319 -38 -13 15 117 319 639 880 1357 1415 -523 -338 -123 -19 -9 3 15 117 325 588 -517 -338 336 504 -505 523 -1415 -1357 1494 -1533 -1524 1526 1883 -1783 -1517 1523 1798" />
	</vehicle>
	<vehicle id="RL_7" type="rl-priority" depart="0.0">