<?xml version="1.0" encoding="UTF-8"?>

<!-- generated on 2023-11-29 11:44:28.326079 by randomTrips.py v1_18_0+0000-03ecfdea036
<configuration>
    <net-file value="Grid1.net.xml"/>
    <output-trip-file value="trips.xml"/>
    <route-file value="routes.rou.xml"/>
    <end value="600.0"/>
    <period value="0.2"/>
</configuration>
-->

<!-- generated on 2023-11-29 11:44:28 by Eclipse SUMO duarouter Version 1.18.0
<configuration xmlns:xsi="http://www.w3.org/2001/XMLSchema-instance" xsi:noNamespaceSchemaLocation="http://sumo.dlr.de/xsd/duarouterConfiguration.xsd">

    <input>
        <net-file value="Grid1.net.xml"/>
        <route-files value="trips.xml"/>
    </input>

    <output>
        <output-file value="routes.rou.xml"/>
        <alternatives-output value="NUL"/>
    </output>

    <time>
        <begin value="0"/>
        <end value="600.0"/>
    </time>

    <report>
        <no-warnings value="true"/>
        <ignore-errors value="true"/>
        <no-step-log value="true"/>
    </report>

</configuration>
-->

<routes xmlns:xsi="http://www.w3.org/2001/XMLSchema-instance" xsi:noNamespaceSchemaLocation="http://sumo.dlr.de/xsd/routes_file.xsd">
	
	<!-- Baseline 1 configurations -->
	<!-- <vType id="passenger-priority" vClass="passenger" length="5" maxSpeed="70" color="210,105,30"/>
	<vType id="cav-priority" vClass="custom1" length="5" maxSpeed="70" color="white"/>
    <vType id="rl-priority" vClass="passenger" length="5" maxSpeed="70" color="red"/>
	<vType id="heuristic-priority" vClass="passenger" sigma="0.5" length="5" maxSpeed="70" color="128,0,128"/>

    <vType id="passenger-default" vClass="passenger" length="5" maxSpeed="70" color="yellow"/>
    <vType id="rl-default" vClass="passenger" length="5" maxSpeed="70" color="green"/>
	<vType id="heuristic-default" vClass="passenger" length="5" maxSpeed="70" color="blue"/> -->
	
	<!-- Baseline 2 configurations -->
	<vType id="passenger-priority" vClass="custom2" length="5" maxSpeed="70" color="210,105,30"/>
	<vType id="cav-priority" vClass="custom1" length="5" maxSpeed="70" color="white"/>
    <vType id="rl-priority" vClass="custom2" length="5" maxSpeed="70" color="red"/>
	<vType id="heuristic-priority" vClass="custom2" length="5" maxSpeed="70" color="128,0,128"/>

    <vType id="passenger-default" vClass="custom2" length="5" maxSpeed="70" color="yellow"/>
    <vType id="rl-default" vClass="custom2" length="5" maxSpeed="70" color="green"/>
	<vType id="heuristic-default" vClass="custom2" length="5" maxSpeed="70" color="blue"/>
	
	<!-- Test configurations -->
	<!-- <vType id="passenger-priority" vClass="custom2" lcLaneDiscipline="1" accel="0.8" decel="4.5" sigma="0.5" length="5" maxSpeed="70" color="210,105,30"/>
	<vType id="cav-priority" vClass="custom1" lcLaneDiscipline="1" accel="0.8" decel="4.5" sigma="0.5" length="5" maxSpeed="70" color="white"/>
    <vType id="rl-priority" vClass="custom2" lcLaneDiscipline="1" accel="0.8" decel="4.5" sigma="0.5" length="5" maxSpeed="70" color="red"/>
	<vType id="heuristic-priority" vClass="custom2" lcLaneDiscipline="1" accel="0.8" decel="4.5" sigma="0.5" length="5" maxSpeed="70" color="128,0,128"/>

    <vType id="passenger-default" vClass="passenger" lcLaneDiscipline="1" accel="0.8" decel="4.5" sigma="0.5" length="5" maxSpeed="50" color="yellow"/>
    <vType id="rl-default" vClass="passenger" lcLaneDiscipline="1" accel="0.8" decel="4.5" sigma="0.5" length="5" maxSpeed="50" color="green"/>
	<vType id="heuristic-default" vClass="passenger" lcLaneDiscipline="1" accel="0.8" decel="4.5" sigma="0.5" length="5" maxSpeed="50" color="blue"/> -->
	
    
    <!-- <flow id="f_0" type="passenger-priority" begin="0.00" from="A2B2" to="E1E0" via="B2B1 C1D1" end="3600.00" vehsPerHour="200" />
    <flow id="f_1" type="passenger-default" begin="0.00" from="E0D0" to="D0D1" end="3600.00" vehsPerHour="200" />
    <flow id="f_2" type="passenger-default" begin="0.00" from="A0B0" to="B2A2" end="3600.00" vehsPerHour="200" />
    <flow id="f_3" type="passenger-priority" begin="0.00" from="E2E1" to="B0A0" via="D1C1 A1A0" end="3600.00" vehsPerHour="200" />
    <flow id="f_4" type="passenger-priority" begin="0.00" from="C0C1" to="C0D0" end="3600.00" vehsPerHour="200" /> -->
    
     <!-- <vehicle id="RL_0" type="rl-priority" depart="0.0">
        <route edges="A0A1 A1B1 B1C1 C1D1 D1E1 E1E0"/>
    </vehicle> -->
    <vehicle id="RL_0" type="rl-priority" depart="0.0">
		<route edges="E0D0 D0C0 C0B0 B0B1 B1B2 B2C2 C2D2 D2C2 C2B2 B2A2 A2A1 A1A0 A0B0 B0C0 C0D0 D0D1 D1C1 C1B1 B1A1 A1A0 A0B0 B0C0 C0D0 D0E0 E0E1 E1E2 E2D2 D2C2 C2C1 C1D1 D1E1 E1E0 E0D0 D0D1 D1C1 C1C2 C2D2 D2E2 E2E1 E1D1 D1D2 D2E2 E2E1 E1D1 D1C1 C1B1 B1A1 A1A2 A2B2 B2B1 B1C1 C1C2 C2D2 D2D1 D1D0 D0C0 C0B0 B0A0 A0A1 A1A2 A2B2 B2C2 C2D2 D2E2 E2E1 E1D1 D1C1 C1C2 C2D2 D2C2 C2C1 C1B1 B1B2 B2C2 C2C1 C1C0 C0B0 B0A0 A0A1 A1B1 B1C1 C1D1 D1E1 E1E0 E0D0 D0D1 D1C1 C1B1 B1A1 A1A0 A0B0 B0C0 C0D0 D0E0 E0E1 E1E2 E2D2 D2C2 C2C1 C1B1 B1B2 B2C2 C2D2 D2C2 C2B2 B2A2 A2A1 A1B1 B1B0 B0A0 A0A1 A1A2 A2B2 B2B1 B1A1 A1A2 A2B2 B2C2 C2D2 D2C2 C2B2 B2A2 A2A1 A1B1 B1B0 B0A0 A0A1 A1A2 A2B2 B2B1 B1A1 A1A0 A0B0 B0C0 C0D0 D0E0 E0E1 E1E2 E2D2 D2C2 C2C1 C1D1 D1E1 E1E0 E0D0 D0C0 C0B0 B0A0 A0A1 A1A2 A2B2 B2C2 C2C1 C1C0 C0B0 B0A0 A0A1 A1A2 A2B2 B2B1 B1A1 A1A0 A0B0 B0C0 C0D0 D0D1 D1C1 C1B1 B1B2 B2C2 C2D2 D2D1 D1E1 E1E2 E2D2 D2C2 C2C1 C1C0 C0B0 B0B1 B1C1 C1D1 D1E1 E1E0 E0D0 D0C0 C0C1 C1D1 D1D0 D0C0 C0B0 B0B1 B1C1 C1D1 D1E1 E1E0 E0D0 D0C0 C0C1 C1C2 C2D2 D2D1 D1D0 D0C0" />
	</vehicle>
	<vehicle id="RL_1" type="rl-priority" depart="0.0">
		<route edges="B0B1 B1C1 C1D1 D1D0 D0C0 C0C1 C1C2 C2D2 D2D1 D1C1 C1C2 C2D2 D2D1 D1D0 D0C0 C0B0 B0A0 A0A1 A1A2 A2B2 B2C2 C2D2 D2E2 E2E1 E1D1 D1C1 C1C2 C2D2 D2D1 D1D0 D0C0 C0B0 B0B1 B1A1 A1A2 A2B2 B2C2 C2D2 D2C2 C2B2 B2A2 A2A1 A1A0 A0B0 B0C0 C0C1 C1C2 C2D2 D2E2 E2E1 E1E0 E0D0 D0C0 C0C1 C1D1 D1D0 D0C0 C0B0 B0A0 A0A1 A1B1 B1C1 C1C0 C0B0 B0B1 B1A1 A1A0 A0B0 B0C0 C0C1 C1D1 D1D0 D0C0 C0B0 B0B1 B1C1 C1D1 D1D0 D0C0 C0B0 B0B1 B1A1 A1A2 A2B2 B2C2 C2D2 D2C2 C2B2 B2A2 A2A1 A1B1 B1C1 C1C0 C0B0 B0B1 B1C1 C1C2 C2D2 D2E2 E2E1 E1E0 E0D0 D0D1 D1C1 C1C0 C0B0 B0B1 B1C1 C1C0 C0B0 B0A0 A0A1 A1B1 B1B0 B0A0 A0A1 A1B1 B1B2 B2C2 C2C1 C1B1 B1A1 A1A2 A2B2 B2B1 B1C1 C1D1 D1D0 D0C0 C0C1 C1C2 C2D2 D2C2 C2B2 B2A2 A2A1 A1A0 A0B0 B0C0 C0D0 D0D1 D1C1 C1B1 B1A1 A1A0 A0B0 B0C0 C0D0 D0D1 D1D2 D2E2 E2E1 E1D1 D1C1 C1B1 B1A1 A1A0 A0B0 B0C0 C0D0 D0D1 D1C1 C1B1 B1B2 B2C2 C2D2 D2E2 E2E1 E1D1 D1D0 D0C0 C0B0 B0A0 A0A1 A1B1 B1C1 C1C0 C0B0 B0B1 B1C1 C1D1 D1E1 E1E2" />
	</vehicle>
	<vehicle id="RL_2" type="rl-priority" depart="0.0">
		<route edges="B2B1 B1B0 B0A0 A0A1 A1B1 B1C1 C1D1 D1E1 E1E2 E2D2 D2C2 C2C1 C1D1 D1D2 D2E2 E2E1 E1E0 E0D0 D0C0 C0B0 B0B1 B1C1 C1D1 D1D0 D0C0 C0C1 C1D1 D1D2 D2E2 E2E1 E1E0 E0D0 D0D1 D1D2 D2E2 E2E1 E1D1 D1C1 C1B1 B1A1 A1A2 A2B2 B2B1 B1C1 C1D1 D1D2 D2E2 E2E1 E1E0 E0D0 D0C0 C0B0 B0A0 A0A1 A1A2 A2B2 B2B1 B1A1 A1A0 A0B0 B0C0 C0C1 C1C2 C2D2 D2E2 E2E1 E1E0 E0D0 D0C0 C0B0 B0A0 A0A1 A1B1 B1C1 C1D1 D1D0 D0C0 C0C1 C1C2 C2D2 D2C2 C2C1 C1D1 D1D0 D0C0 C0B0 B0B1 B1B2 B2C2 C2C1 C1B1 B1B2 B2C2 C2D2 D2D1 D1E1 E1E0 E0D0 D0D1 D1C1 C1C0 C0B0 B0B1 B1B2 B2C2 C2C1 C1D1 D1D2 D2E2 E2E1 E1D1 D1C1 C1C2 C2D2 D2C2 C2B2 B2A2 A2A1 A1B1 B1C1 C1D1 D1D2 D2E2 E2E1 E1D1 D1D2 D2E2 E2E1 E1E0 E0D0 D0D1 D1E1 E1E2 E2D2 D2C2 C2C1 C1C0 C0B0 B0B1 B1C1 C1C2 C2D2 D2D1 D1C1 C1B1 B1A1 A1A0 A0B0 B0C0 C0D0 D0E0 E0E1 E1E2 E2D2 D2C2 C2C1 C1D1 D1D2 D2E2 E2E1 E1D1 D1C1 C1C0 C0B0 B0A0 A0A1 A1B1 B1C1 C1C2 C2D2 D2E2 E2E1 E1D1 D1D2 D2E2 E2E1 E1E0 E0D0 D0C0 C0B0 B0A0 A0A1 A1B1 B1C1 C1C0 C0B0 B0B1 B1A1 A1A0 A0B0 B0C0 C0D0 D0E0 E0E1 E1E2 E2D2 D2C2 C2B2 B2A2 A2A1" />
	</vehicle>
	<vehicle id="RL_3" type="rl-priority" depart="0.0">
		<route edges="B1A1 A1A2 A2B2 B2C2 C2D2 D2D1 D1E1 E1E2 E2D2 D2C2 C2C1 C1C0 C0B0 B0B1 B1C1 C1C2 C2D2 D2D1 D1D0 D0C0 C0C1 C1D1 D1D0 D0C0 C0B0 B0B1 B1B2 B2C2 C2D2 D2E2 E2E1 E1E0 E0D0 D0C0 C0B0 B0A0 A0A1 A1A2 A2B2 B2C2 C2D2 D2E2 E2E1 E1D1 D1C1 C1C2 C2D2 D2C2 C2B2 B2A2 A2A1 A1B1 B1C1 C1D1 D1E1 E1E0 E0D0 D0D1 D1D2 D2E2 E2E1 E1D1 D1D2 D2E2 E2E1 E1D1 D1C1 C1C2 C2D2 D2D1 D1E1 E1E0 E0D0 D0C0 C0B0 B0B1 B1B2 B2C2 C2C1 C1B1 B1A1 A1A0 A0B0 B0C0 C0C1 C1D1 D1D0 D0C0 C0B0 B0B1 B1A1 A1A0 A0B0 B0C0 C0C1 C1D1 D1D0 D0C0 C0B0 B0A0 A0A1 A1B1 B1C1 C1D1 D1E1 E1E0 E0D0 D0C0 C0B0 B0A0 A0A1 A1B1 B1B2 B2C2 C2C1 C1D1 D1D2 D2E2 E2E1 E1D1 D1C1 C1B1 B1B2 B2C2 C2C1 C1D1 D1D2 D2E2 E2E1 E1D1 D1D0 D0C0 C0B0 B0B1 B1C1 C1D1 D1D2 D2E2 E2E1 E1D1 D1C1 C1C0 C0B0 B0B1 B1C1 C1D1 D1D0 D0C0 C0C1 C1D1 D1D2 D2E2 E2E1 E1D1 D1C1 C1B1 B1A1 A1A2 A2B2 B2B1 B1B0 B0A0 A0A1 A1A2 A2B2 B2C2 C2C1 C1C0 C0B0 B0A0 A0A1 A1B1 B1C1 C1D1 D1E1" />
	</vehicle>
	<vehicle id="RL_4" type="rl-priority" depart="0.0">
		<route edges="A1B1 B1C1 C1C2 C2D2 D2D1 D1D0 D0C0 C0B0 B0B1 B1C1 C1C0 C0B0 B0B1 B1A1 A1A0 A0B0 B0C0 C0C1 C1C2 C2D2 D2E2 E2E1 E1D1 D1C1 C1B1 B1A1 A1A0 A0B0 B0C0 C0D0 D0D1 D1C1 C1C0 C0B0 B0A0 A0A1 A1B1 B1C1 C1D1 D1D0 D0C0 C0C1 C1D1 D1E1 E1E2 E2D2 D2C2 C2C1 C1B1 B1B2 B2C2 C2D2 D2D1 D1C1 C1C0 C0B0 B0A0 A0A1 A1B1 B1C1 C1D1 D1D0 D0C0 C0C1 C1C2 C2D2 D2D1 D1C1 C1B1 B1A1 A1A2 A2B2 B2C2 C2D2 D2E2 E2E1 E1E0 E0D0 D0D1 D1D2 D2E2 E2E1 E1D1 D1C1 C1C0 C0B0 B0B1 B1B2 B2C2 C2D2 D2E2 E2E1 E1E0 E0D0 D0C0 C0B0 B0B1 B1C1 C1C0 C0B0 B0A0 A0A1 A1A2 A2B2 B2C2 C2C1 C1B1 B1B2 B2C2 C2D2 D2D1 D1C1 C1C0 C0B0 B0B1 B1B2 B2C2 C2D2 D2E2 E2E1 E1E0 E0D0 D0D1 D1E1 E1E2 E2D2 D2C2 C2B2 B2A2 A2A1 A1B1 B1C1 C1C2 C2D2 D2D1 D1C1 C1B1 B1A1 A1A2 A2B2 B2C2 C2D2 D2C2 C2B2 B2A2 A2A1 A1B1 B1C1 C1C2 C2D2 D2D1 D1C1 C1C0 C0B0 B0B1 B1A1 A1A0 A0B0 B0C0 C0D0 D0D1 D1C1 C1B1 B1A1 A1A0 A0B0 B0C0 C0C1 C1D1 D1D0 D0C0 C0B0 B0B1 B1A1 A1A0 A0B0 B0C0 C0D0 D0E0 E0E1 E1E2 E2D2 D2C2 C2C1 C1B1 B1A1 A1A0 A0B0 B0C0 C0D0 D0E0 E0E1 E1E2 E2D2 D2C2 C2C1 C1D1 D1E1 E1E0 E0D0 D0D1 D1C1 C1B1 B1A1 A1A0 A0B0 B0C0 C0D0 D0D1 D1D2 D2E2" />
	</vehicle>
	<vehicle id="RL_5" type="rl-priority" depart="0.0">
		<route edges="B1A1 A1A2 A2B2 B2C2 C2C1 C1B1 B1A1 A1A2 A2B2 B2B1 B1B0 B0A0 A0A1 A1B1 B1C1 C1C0 C0B0 B0B1 B1B2 B2C2 C2D2 D2C2 C2B2 B2A2 A2A1 A1B1 B1B2 B2C2 C2C1 C1B1 B1A1 A1A2 A2B2 B2C2 C2C1 C1C0 C0B0 B0B1 B1B2 B2C2 C2D2 D2D1 D1C1 C1C2 C2D2 D2C2 C2B2 B2A2 A2A1 A1B1 B1B0 B0A0 A0A1 A1A2 A2B2 B2C2 C2D2 D2E2 E2E1 E1E0 E0D0 D0C0 C0C1 C1D1 D1D0 D0C0 C0C1 C1D1 D1E1 E1E0 E0D0 D0C0 C0C1 C1C2 C2D2 D2D1 D1D0 D0C0 C0B0 B0A0 A0A1 A1A2 A2B2 B2B1 B1C1 C1C2 C2D2 D2C2 C2B2 B2A2 A2A1 A1A0 A0B0 B0C0 C0C1 C1D1 D1D0 D0C0 C0B0 B0B1 B1B2 B2C2 C2C1 C1C0 C0B0 B0B1 B1C1 C1C2 C2D2 D2D1 D1C1 C1B1 B1A1 A1A0 A0B0 B0C0 C0D0 D0D1 D1C1 C1C0 C0B0 B0A0 A0A1 A1A2 A2B2 B2C2 C2D2 D2D1 D1C1 C1B1 B1A1 A1A2 A2B2 B2B1 B1B0 B0A0 A0A1 A1A2 A2B2 B2C2 C2D2 D2D1 D1C1 C1C2 C2D2 D2E2 E2E1 E1D1 D1C1 C1C2 C2D2 D2E2 E2E1 E1E0 E0D0 D0C0 C0B0 B0B1 B1A1 A1A0 A0B0 B0C0 C0C1 C1D1 D1D0 D0C0 C0B0 B0A0 A0A1 A1B1 B1B0 B0A0 A0A1 A1A2 A2B2 B2B1 B1A1 A1A0 A0B0 B0C0 C0C1 C1C2 C2D2 D2D1 D1C1 C1B1 B1A1 A1A0 A0B0 B0C0" />
	</vehicle>
	<vehicle id="RL_6" type="rl-priority" depart="0.0">
		<route edges="B1B0 B0A0 A0A1 A1A2 A2B2 B2C2 C2D2 D2E2 E2E1 E1D1 D1C1 C1B1 B1A1 A1A2 A2B2 B2B1 B1A1 A1A0 A0B0 B0C0 C0C1 C1D1 D1D0 D0C0 C0B0 B0B1 B1C1 C1D1 D1E1 E1E0 E0D0 D0C0 C0C1 C1C2 C2D2 D2D1 D1D0 D0C0 C0C1 C1D1 D1D0 D0C0 C0B0 B0B1 B1A1 A1A0 A0B0 B0C0 C0D0 D0E0 E0E1 E1E2 E2D2 D2C2 C2C1 C1C0 C0B0 B0A0 A0A1 A1A2 A2B2 B2C2 C2D2 D2E2 E2E1 E1D1 D1C1 C1B1 B1B2 B2C2 C2C1 C1D1 D1E1 E1E2 E2D2 D2C2 C2C1 C1B1 B1A1 A1A2 A2B2 B2B1 B1B0 B0A0 A0A1 A1B1 B1C1 C1C2 C2D2 D2E2 E2E1 E1D1 D1C1 C1C2 C2D2 D2D1 D1D0 D0C0 C0C1 C1D1 D1E1 E1E0 E0D0 D0D1 D1C1 C1C0 C0B0 B0A0 A0A1 A1B1 B1B0 B0A0 A0A1 A1A2 A2B2 B2B1 B1C1 C1D1 D1D2 D2E2 E2E1 E1D1 D1C1 C1B1 B1B2 B2C2 C2C1 C1D1 D1D0 D0C0 C0B0 B0A0 A0A1 A1B1 B1C1 C1D1 D1D2 D2E2 E2E1 E1D1 D1D0 D0C0 C0B0 B0B1 B1C1 C1C0 C0B0 B0B1 B1B2 B2C2 C2D2 D2D1 D1D0 D0C0 C0B0 B0B1 B1C1 C1C0 C0B0 B0B1 B1B2 B2C2 C2D2 D2D1 D1C1 C1C0 C0B0 B0B1 B1C1 C1D1 D1D0 D0C0 C0B0 B0B1 B1A1 A1A0 A0B0 B0C0 C0D0 D0E0 E0E1 E1E2 E2D2 D2C2 C2C1 C1D1 D1D0 D0C0 C0B0 B0B1 B1A1 A1A0 A0B0 B0C0 C0C1 C1C2 C2D2 D2C2 C2C1" />
	</vehicle>
	<vehicle id="RL_7" type="rl-priority" depart="0.0">
		<route edges="C2B2 B2A2 A2A1 A1A0 A0B0 B0C0 C0D0 D0D1 D1C1 C1B1 B1B2 B2C2 C2D2 D2D1 D1C1 C1C2 C2D2 D2D1 D1E1 E1E2 E2D2 D2C2 C2C1 C1C0 C0B0 B0B1 B1A1 A1A0 A0B0 B0C0 C0D0 D0D1 D1C1 C1B1 B1A1 A1A2 A2B2 B2B1 B1C1 C1D1 D1E1 E1E2 E2D2 D2C2 C2B2 B2A2 A2A1 A1A0 A0B0 B0C0 C0C1 C1C2 C2D2 D2E2 E2E1 E1D1 D1C1 C1C2 C2D2 D2C2 C2B2 B2A2 A2A1 A1B1 B1B2 B2C2 C2D2 D2C2 C2B2 B2A2 A2A1 A1A0 A0B0 B0C0 C0D0 D0E0 E0E1 E1E2 E2D2 D2C2 C2C1 C1D1 D1D0 D0C0 C0B0 B0B1 B1A1 A1A0 A0B0 B0C0 C0D0 D0D1 D1C1 C1B1 B1B2 B2C2 C2D2 D2E2 E2E1 E1E0 E0D0 D0C0 C0B0 B0B1 B1A1 A1A0 A0B0 B0C0 C0D0 D0D1 D1C1 C1B1 B1B2 B2C2 C2C1 C1B1 B1A1 A1A0 A0B0 B0C0 C0D0 D0D1 D1E1 E1E2 E2D2 D2C2 C2B2 B2A2 A2A1 A1B1 B1C1 C1C2 C2D2 D2C2 C2B2 B2A2 A2A1 A1B1 B1C1 C1C2 C2D2 D2E2 E2E1 E1D1 D1D2 D2E2 E2E1 E1E0 E0D0 D0D1 D1E1 E1E2 E2D2 D2C2 C2C1 C1D1 D1D0 D0C0 C0B0 B0B1 B1A1 A1A0 A0B0 B0C0 C0D0 D0D1 D1C1 C1B1 B1A1 A1A0 A0B0 B0C0 C0D0 D0D1 D1C1 C1B1 B1B2 B2C2 C2C1 C1B1 B1A1 A1A0 A0B0 B0C0 C0D0 D0D1 D1D2 D2E2 E2E1 E1D1 D1C1 C1B1 B1A1 A1A0 A0B0 B0C0 C0D0 D0D1 D1C1 C1B1 B1B2 B2C2 C2C1 C1B1 B1A1 A1A2 A2B2 B2C2 C2C1 C1C0 C0B0" />
	</vehicle>
	<vehicle id="RL_8" type="rl-priority" depart="0.0">
		<route edges="B1B2 B2C2 C2C1 C1B1 B1A1 A1A0 A0B0 B0C0 C0D0 D0E0 E0E1 E1E2 E2D2 D2C2 C2B2 B2A2 A2A1 A1A0 A0B0 B0C0 C0C1 C1D1 D1D0 D0C0 C0B0 B0B1 B1B2 B2C2 C2C1 C1B1 B1B2 B2C2 C2D2 D2D1 D1D0 D0C0 C0C1 C1D1 D1D2 D2E2 E2E1 E1E0 E0D0 D0C0 C0B0 B0B1 B1A1 A1A0 A0B0 B0C0 C0C1 C1C2 C2D2 D2E2 E2E1 E1D1 D1C1 C1B1 B1B2 B2C2 C2D2 D2C2 C2B2 B2A2 A2A1 A1A0 A0B0 B0C0 C0D0 D0E0 E0E1 E1E2 E2D2 D2C2 C2B2 B2A2 A2A1 A1B1 B1C1 C1C2 C2D2 D2D1 D1C1 C1C2 C2D2 D2E2 E2E1 E1E0 E0D0 D0D1 D1E1 E1E0 E0D0 D0C0 C0B0 B0A0 A0A1 A1A2 A2B2 B2B1 B1C1 C1D1 D1E1 E1E0 E0D0 D0D1 D1C1 C1C0 C0B0 B0A0 A0A1 A1A2 A2B2 B2C2 C2D2 D2E2 E2E1 E1D1 D1C1 C1B1 B1A1 A1A2 A2B2 B2C2 C2D2 D2D1 D1D0 D0C0 C0B0 B0A0 A0A1 A1B1 B1C1 C1D1 D1D0 D0C0 C0B0 B0B1 B1A1 A1A0 A0B0 B0C0 C0D0 D0D1 D1E1 E1E0 E0D0 D0D1 D1D2 D2E2 E2E1 E1D1 D1D0 D0C0 C0B0 B0A0 A0A1 A1B1 B1C1 C1D1 D1E1 E1E0 E0D0 D0D1 D1C1 C1B1 B1A1 A1A0 A0B0 B0C0 C0D0 D0E0 E0E1 E1E2 E2D2 D2C2 C2C1 C1D1 D1D0 D0C0 C0B0 B0B1 B1B2 B2C2 C2C1 C1C0 C0B0 B0A0 A0A1 A1A2 A2B2 B2C2 C2D2" />
	</vehicle>
	<vehicle id="RL_9" type="rl-priority" depart="0.0">
		<route edges="D1D0 D0C0 C0C1 C1D1 D1E1 E1E2 E2D2 D2C2 C2B2 B2A2 A2A1 A1A0 A0B0 B0C0 C0C1 C1D1 D1D0 D0C0 C0B0 B0A0 A0A1 A1A2 A2B2 B2B1 B1A1 A1A0 A0B0 B0C0 C0D0 D0E0 E0E1 E1E2 E2D2 D2C2 C2C1 C1D1 D1E1 E1E0 E0D0 D0C0 C0C1 C1D1 D1D0 D0C0 C0B0 B0B1 B1A1 A1A0 A0B0 B0C0 C0D0 D0D1 D1C1 C1B1 B1B2 B2C2 C2D2 D2E2 E2E1 E1D1 D1C1 C1C2 C2D2 D2C2 C2C1 C1D1 D1D2 D2E2 E2E1 E1D1 D1C1 C1C2 C2D2 D2C2 C2B2 B2A2 A2A1 A1B1 B1C1 C1C2 C2D2 D2E2 E2E1 E1E0 E0D0 D0C0 C0B0 B0B1 B1B2 B2C2 C2C1 C1D1 D1E1 E1E0 E0D0 D0D1 D1C1 C1C0 C0B0 B0B1 B1C1 C1C0 C0B0 B0A0 A0A1 A1A2 A2B2 B2C2 C2C1 C1C0 C0B0 B0B1 B1C1 C1C2 C2D2 D2D1 D1D0 D0C0 C0B0 B0A0 A0A1 A1B1 B1C1 C1C2 C2D2 D2D1 D1E1 E1E2 E2D2 D2C2 C2C1 C1B1 B1A1 A1A2 A2B2 B2C2 C2D2 D2E2 E2E1 E1D1 D1C1 C1C2 C2D2 D2C2 C2B2 B2A2 A2A1 A1B1 B1B0 B0A0 A0A1 A1A2 A2B2 B2C2 C2D2 D2C2 C2B2 B2A2 A2A1 A1B1 B1B0 B0A0 A0A1 A1B1 B1C1 C1D1 D1D0 D0C0 C0B0 B0A0 A0A1 A1A2 A2B2 B2B1 B1C1 C1D1 D1D0 D0C0 C0B0 B0A0 A0A1 A1A2 A2B2 B2B1 B1C1 C1C2 C2D2 D2C2 C2B2 B2A2 A2A1 A1B1 B1B2 B2C2 C2C1 C1C0 C0B0 B0B1 B1C1 C1D1 D1D0 D0C0 C0C1 C1D1 D1D2" />
	</vehicle>
	<vehicle id="RL_10" type="rl-priority" depart="0.0">
		<route edges="A0A1 A1A2 A2B2 B2B1 B1A1 A1A0 A0B0 B0C0 C0D0 D0E0 E0E1 E1E2 E2D2 D2C2 C2C1 C1C0 C0B0 B0B1 B1C1 C1C0 C0B0 B0A0 A0A1 A1A2 A2B2 B2B1 B1A1 A1A2 A2B2 B2C2 C2C1 C1C0 C0B0 B0B1 B1A1 A1A2 A2B2 B2B1 B1A1 A1A2 A2B2 B2C2 C2D2 D2D1 D1C1 C1C2 C2D2 D2E2 E2E1 E1E0 E0D0 D0C0 C0B0 B0B1 B1B2 B2C2 C2C1 C1C0 C0B0 B0A0 A0A1 A1A2 A2B2 B2B1 B1A1 A1A2 A2B2 B2C2 C2C1 C1B1 B1B2 B2C2 C2D2 D2D1 D1C1 C1C2 C2D2 D2E2 E2E1 E1E0 E0D0 D0C0 C0B0 B0B1 B1A1 A1A0 A0B0 B0C0 C0D0 D0E0 E0E1 E1E2 E2D2 D2C2 C2C1 C1D1 D1D2 D2E2 E2E1 E1D1 D1D0 D0C0 C0C1 C1D1 D1E1 E1E0 E0D0 D0C0 C0B0 B0A0 A0A1 A1B1 B1C1 C1C2 C2D2 D2C2 C2B2 B2A2 A2A1 A1B1 B1C1 C1D1 D1E1 E1E2 E2D2 D2C2 C2B2 B2A2 A2A1 A1B1 B1C1 C1C2 C2D2 D2C2 C2C1 C1D1 D1D2 D2E2 E2E1 E1D1 D1D2 D2E2 E2E1 E1D1 D1D2 D2E2 E2E1 E1E0 E0D0 D0C0 C0C1 C1D1 D1D0 D0C0 C0B0 B0A0 A0A1 A1A2 A2B2 B2C2 C2C1 C1C0 C0B0 B0B1 B1C1 C1D1 D1D2 D2E2 E2E1 E1D1 D1C1 C1B1 B1B2 B2C2 C2C1 C1B1 B1A1 A1A0 A0B0 B0C0 C0C1 C1C2 C2D2 D2D1 D1E1 E1E0 E0D0 D0C0 C0B0 B0B1 B1B2 B2C2 C2D2 D2C2 C2B2 B2A2 A2A1 A1B1 B1C1 C1C2 C2D2 D2E2" />
	</vehicle>
	<vehicle id="RL_11" type="rl-priority" depart="0.0">
		<route edges="B1B2 B2C2 C2C1 C1C0 C0B0 B0B1 B1C1 C1C0 C0B0 B0A0 A0A1 A1A2 A2B2 B2C2 C2D2 D2D1 D1D0 D0C0 C0C1 C1C2 C2D2 D2E2 E2E1 E1D1 D1C1 C1B1 B1B2 B2C2 C2C1 C1D1 D1D0 D0C0 C0C1 C1D1 D1E1 E1E0 E0D0 D0D1 D1D2 D2E2 E2E1 E1D1 D1C1 C1B1 B1A1 A1A0 A0B0 B0C0 C0D0 D0E0 E0E1 E1E2 E2D2 D2C2 C2C1 C1C0 C0B0 B0A0 A0A1 A1A2 A2B2 B2C2 C2D2 D2C2 C2B2 B2A2 A2A1 A1B1 B1B0 B0A0 A0A1 A1A2 A2B2 B2C2 C2D2 D2C2 C2B2 B2A2 A2A1 A1B1 B1C1 C1D1 D1E1 E1E0 E0D0 D0D1 D1D2 D2E2 E2E1 E1D1 D1C1 C1C2 C2D2 D2C2 C2B2 B2A2 A2A1 A1A0 A0B0 B0C0 C0C1 C1C2 C2D2 D2D1 D1C1 C1C2 C2D2 D2E2 E2E1 E1D1 D1C1 C1C2 C2D2 D2C2 C2B2 B2A2 A2A1 A1A0 A0B0 B0C0 C0D0 D0E0 E0E1 E1E2 E2D2 D2C2 C2C1 C1D1 D1E1 E1E0 E0D0 D0D1 D1D2 D2E2 E2E1 E1D1 D1C1 C1B1 B1A1 A1A2 A2B2 B2B1 B1C1 C1C0 C0B0 B0B1 B1B2 B2C2 C2D2 D2C2 C2B2 B2A2 A2A1 A1B1 B1C1 C1D1 D1D0 D0C0 C0C1 C1C2 C2D2 D2C2 C2B2 B2A2 A2A1 A1B1 B1C1 C1C2 C2D2 D2E2 E2E1 E1D1 D1C1 C1C2 C2D2 D2D1 D1D0 D0C0 C0C1 C1C2 C2D2 D2E2 E2E1 E1D1 D1C1 C1B1 B1A1 A1A0 A0B0 B0C0 C0D0 D0D1 D1D2 D2E2 E2E1 E1D1 D1C1 C1B1 B1A1 A1A2 A2B2 B2B1 B1A1 A1A0 A0B0 B0C0 C0D0 D0D1 D1C1 C1C0 C0B0 B0B1 B1A1 A1A0 A0B0 B0C0 C0D0 D0D1 D1D2 D2E2" />
	</vehicle>
	<vehicle id="RL_12" type="rl-priority" depart="0.0">
		<route edges="B1A1 A1A2 A2B2 B2C2 C2C1 C1B1 B1A1 A1A0 A0B0 B0C0 C0D0 D0D1 D1C1 C1B1 B1B2 B2C2 C2D2 D2C2 C2B2 B2A2 A2A1 A1A0 A0B0 B0C0 C0D0 D0D1 D1C1 C1B1 B1A1 A1A2 A2B2 B2B1 B1C1 C1C0 C0B0 B0B1 B1B2 B2C2 C2D2 D2D1 D1D0 D0C0 C0C1 C1D1 D1D2 D2E2 E2E1 E1D1 D1C1 C1B1 B1A1 A1A0 A0B0 B0C0 C0D0 D0E0 E0E1 E1E2 E2D2 D2C2 C2C1 C1D1 D1E1 E1E0 E0D0 D0D1 D1C1 C1B1 B1A1 A1A2 A2B2 B2B1 B1B0 B0A0 A0A1 A1A2 A2B2 B2C2 C2D2 D2D1 D1C1 C1B1 B1A1 A1A0 A0B0 B0C0 C0D0 D0E0 E0E1 E1E2 E2D2 D2C2 C2C1 C1D1 D1E1 E1E0 E0D0 D0D1 D1C1 C1B1 B1A1 A1A0 A0B0 B0C0 C0C1 C1C2 C2D2 D2D1 D1C1 C1B1 B1A1 A1A2 A2B2 B2C2 C2D2 D2E2 E2E1 E1D1 D1C1 C1C2 C2D2 D2D1 D1C1 C1B1 B1A1 A1A0 A0B0 B0C0 C0D0 D0D1 D1C1 C1C2 C2D2 D2E2 E2E1 E1D1 D1D2 D2E2 E2E1 E1E0 E0D0 D0D1 D1E1 E1E2 E2D2 D2C2 C2C1 C1B1 B1A1 A1A2 A2B2 B2B1 B1B0 B0A0 A0A1 A1B1 B1C1 C1D1 D1E1 E1E0 E0D0 D0C0 C0B0 B0A0 A0A1 A1A2 A2B2 B2C2 C2C1 C1B1 B1B2 B2C2 C2C1 C1D1 D1D0 D0C0 C0B0 B0A0 A0A1 A1B1 B1C1 C1D1 D1E1 E1E2 E2D2 D2C2 C2C1 C1C0 C0B0 B0B1 B1C1 C1C0 C0B0 B0A0 A0A1 A1B1 B1C1 C1D1 D1D0 D0C0 C0C1" />
	</vehicle>
	<vehicle id="RL_13" type="rl-priority" depart="0.0">
		<route edges="C1D1 D1D0 D0C0 C0B0 B0B1 B1C1 C1C0 C0B0 B0B1 B1C1 C1D1 D1D2 D2E2 E2E1 E1E0 E0D0 D0C0 C0C1 C1C2 C2D2 D2D1 D1C1 C1B1 B1A1 A1A0 A0B0 B0C0 C0D0 D0D1 D1E1 E1E2 E2D2 D2C2 C2C1 C1B1 B1A1 A1A0 A0B0 B0C0 C0D0 D0E0 E0E1 E1E2 E2D2 D2C2 C2C1 C1B1 B1A1 A1A2 A2B2 B2B1 B1C1 C1D1 D1D2 D2E2 E2E1 E1D1 D1C1 C1B1 B1B2 B2C2 C2D2 D2C2 C2B2 B2A2 A2A1 A1B1 B1C1 C1D1 D1E1 E1E0 E0D0 D0C0 C0B0 B0A0 A0A1 A1A2 A2B2 B2B1 B1C1 C1C2 C2D2 D2D1 D1C1 C1C0 C0B0 B0A0 A0A1 A1B1 B1C1 C1C0 C0B0 B0B1 B1A1 A1A0 A0B0 B0C0 C0D0 D0E0 E0E1 E1E2 E2D2 D2C2 C2C1 C1D1 D1D0 D0C0 C0B0 B0A0 A0A1 A1B1 B1C1 C1D1 D1E1 E1E2 E2D2 D2C2 C2B2 B2A2 A2A1 A1A0 A0B0 B0C0 C0C1 C1C2 C2D2 D2C2 C2B2 B2A2 A2A1 A1A0 A0B0 B0C0 C0D0 D0E0 E0E1 E1E2 E2D2 D2C2 C2C1 C1D1 D1D2 D2E2 E2E1 E1E0 E0D0 D0D1 D1E1 E1E0 E0D0 D0C0 C0B0 B0B1 B1A1 A1A0 A0B0 B0C0 C0D0 D0D1 D1E1 E1E0 E0D0 D0C0 C0B0 B0B1 B1A1 A1A0 A0B0 B0C0 C0D0 D0E0 E0E1 E1E2 E2D2 D2C2 C2B2 B2A2 A2A1 A1A0 A0B0 B0C0 C0C1 C1D1 D1D0 D0C0 C0B0 B0B1 B1C1 C1C2 C2D2 D2D1 D1C1 C1B1 B1A1 A1A0 A0B0 B0C0 C0C1 C1D1 D1D0 D0C0 C0B0 B0B1 B1A1 A1A0 A0B0 B0C0 C0C1 C1C2 C2D2 D2E2 E2E1 E1D1 D1C1 C1B1 B1B2 B2C2 C2C1 C1D1 D1E1 E1E0 E0D0 D0D1 D1C1 C1B1 B1A1 A1A0 A0B0 B0C0 C0D0 D0E0 E0E1 E1E2 E2D2 D2C2 C2C1 C1C0" />
	</vehicle>
	<vehicle id="RL_14" type="rl-priority" depart="0.0">
		<route edges="D1E1 E1E2 E2D2 D2C2 C2B2 B2A2 A2A1 A1A0 A0B0 B0C0 C0D0 D0E0 E0E1 E1E2 E2D2 D2C2 C2B2 B2A2 A2A1 A1B1 B1B0 B0A0 A0A1 A1A2 A2B2 B2B1 B1A1 A1A0 A0B0 B0C0 C0C1 C1C2 C2D2 D2C2 C2B2 B2A2 A2A1 A1B1 B1B0 B0A0 A0A1 A1A2 A2B2 B2B1 B1A1 A1A0 A0B0 B0C0 C0D0 D0E0 E0E1 E1E2 E2D2 D2C2 C2C1 C1B1 B1A1 A1A2 A2B2 B2C2 C2D2 D2E2 E2E1 E1E0 E0D0 D0C0 C0B0 B0B1 B1C1 C1C0 C0B0 B0B1 B1C1 C1D1 D1E1 E1E2 E2D2 D2C2 C2C1 C1C0 C0B0 B0B1 B1C1 C1C2 C2D2 D2C2 C2B2 B2A2 A2A1 A1A0 A0B0 B0C0 C0D0 D0E0 E0E1 E1E2 E2D2 D2C2 C2B2 B2A2 A2A1 A1A0 A0B0 B0C0 C0D0 D0E0 E0E1 E1E2 E2D2 D2C2 C2C1 C1D1 D1D2 D2E2 E2E1 E1D1 D1D0 D0C0 C0C1 C1D1 D1D0 D0C0 C0B0 B0B1 B1A1 A1A0 A0B0 B0C0 C0D0 D0D1 D1C1 C1B1 B1B2 B2C2 C2C1 C1B1 B1A1 A1A0 A0B0 B0C0 C0D0 D0D1 D1C1 C1B1 B1A1 A1A2 A2B2 B2B1 B1A1 A1A2 A2B2 B2C2 C2D2 D2E2 E2E1 E1E0 E0D0 D0C0 C0C1 C1D1 D1D0 D0C0 C0B0 B0B1 B1C1 C1C2 C2D2 D2C2 C2C1 C1B1 B1A1 A1A0 A0B0 B0C0 C0D0 D0E0 E0E1 E1E2 E2D2 D2C2 C2C1 C1D1 D1D0 D0C0 C0C1 C1D1 D1E1 E1E2 E2D2 D2C2 C2C1 C1B1 B1B2 B2C2 C2C1 C1B1 B1A1 A1A2 A2B2 B2B1 B1A1 A1A0 A0B0 B0C0 C0D0 D0E0 E0E1 E1E2 E2D2 D2C2 C2B2 B2A2 A2A1 A1A0 A0B0 B0C0 C0D0" />
	</vehicle>
	<vehicle id="RL_15" type="rl-priority" depart="0.0">
		<route edges="C0D0 D0D1 D1E1 E1E0 E0D0 D0C0 C0C1 C1D1 D1D0 D0C0 C0B0 B0A0 A0A1 A1A2 A2B2 B2C2 C2D2 D2E2 E2E1 E1E0 E0D0 D0C0 C0C1 C1D1 D1D0 D0C0 C0B0 B0B1 B1A1 A1A0 A0B0 B0C0 C0D0 D0E0 E0E1 E1E2 E2D2 D2C2 C2C1 C1C0 C0B0 B0B1 B1A1 A1A0 A0B0 B0C0 C0D0 D0D1 D1C1 C1B1 B1A1 A1A0 A0B0 B0C0 C0D0 D0E0 E0E1 E1E2 E2D2 D2C2 C2B2 B2A2 A2A1 A1A0 A0B0 B0C0 C0C1 C1C2 C2D2 D2C2 C2B2 B2A2 A2A1 A1A0 A0B0 B0C0 C0D0 D0E0 E0E1 E1E2 E2D2 D2C2 C2B2 B2A2 A2A1 A1A0 A0B0 B0C0 C0C1 C1C2 C2D2 D2C2 C2B2 B2A2 A2A1 A1B1 B1B0 B0A0 A0A1 A1A2 A2B2 B2B1 B1C1 C1D1 D1D0 D0C0 C0C1 C1C2 C2D2 D2C2 C2B2 B2A2 A2A1 A1B1 B1B0 B0A0 A0A1 A1B1 B1C1 C1D1 D1D2 D2E2 E2E1 E1D1 D1D2 D2E2 E2E1 E1E0 E0D0 D0D1 D1E1 E1E2 E2D2 D2C2 C2C1 C1D1 D1E1 E1E2 E2D2 D2C2 C2C1 C1D1 D1E1 E1E0 E0D0 D0D1 D1C1 C1B1 B1A1 A1A2 A2B2 B2B1 B1A1 A1A2 A2B2 B2C2 C2D2 D2E2 E2E1 E1E0 E0D0 D0C0 C0B0 B0A0 A0A1 A1A2 A2B2 B2B1 B1A1 A1A0 A0B0 B0C0 C0C1 C1C2 C2D2 D2E2 E2E1 E1D1 D1C1 C1B1 B1A1 A1A0 A0B0 B0C0 C0D0 D0D1 D1E1 E1E0 E0D0 D0D1 D1E1 E1E2 E2D2 D2C2 C2B2 B2A2 A2A1 A1B1 B1C1 C1C2 C2D2 D2C2 C2B2 B2A2 A2A1 A1B1 B1C1 C1C2 C2D2 D2C2 C2B2 B2A2 A2A1 A1B1 B1B0 B0A0 A0A1 A1A2" />
	</vehicle>
	<vehicle id="RL_16" type="rl-priority" depart="0.0">
		<route edges="B1C1 C1C0 C0B0 B0A0 A0A1 A1A2 A2B2 B2C2 C2C1 C1B1 B1A1 A1A2 A2B2 B2B1 B1A1 A1A0 A0B0 B0C0 C0D0 D0E0 E0E1 E1E2 E2D2 D2C2 C2B2 B2A2 A2A1 A1B1 B1C1 C1D1 D1E1 E1E2 E2D2 D2C2 C2C1 C1C0 C0B0 B0B1 B1C1 C1C2 C2D2 D2D1 D1D0 D0C0 C0B0 B0A0 A0A1 A1A2 A2B2 B2B1 B1A1 A1A0 A0B0 B0C0 C0D0 D0D1 D1D2 D2E2 E2E1 E1D1 D1C1 C1C2 C2D2 D2C2 C2B2 B2A2 A2A1 A1A0 A0B0 B0C0 C0D0 D0E0 E0E1 E1E2 E2D2 D2C2 C2B2 B2A2 A2A1 A1B1 B1C1 C1C0 C0B0 B0B1 B1A1 A1A0 A0B0 B0C0 C0C1 C1C2 C2D2 D2E2 E2E1 E1E0 E0D0 D0C0 C0C1 C1C2 C2D2 D2C2 C2B2 B2A2 A2A1 A1B1 B1B0 B0A0 A0A1 A1A2 A2B2 B2C2 C2C1 C1B1 B1A1 A1A2 A2B2 B2B1 B1C1 C1D1 D1E1 E1E2 E2D2 D2C2 C2C1 C1C0 C0B0 B0A0 A0A1 A1A2 A2B2 B2C2 C2D2 D2D1 D1D0 D0C0 C0B0 B0A0 A0A1 A1A2 A2B2 B2C2 C2D2 D2E2 E2E1 E1D1 D1C1 C1C2 C2D2 D2D1 D1C1 C1B1 B1A1 A1A0 A0B0 B0C0 C0D0 D0E0 E0E1 E1E2 E2D2 D2C2 C2C1 C1B1 B1B2 B2C2 C2D2 D2D1 D1C1 C1C2 C2D2 D2E2 E2E1 E1E0 E0D0 D0D1 D1C1 C1B1 B1A1 A1A0 A0B0 B0C0 C0C1 C1C2 C2D2 D2D1 D1C1 C1B1 B1A1 A1A2 A2B2 B2B1 B1C1 C1D1 D1E1 E1E0 E0D0 D0C0 C0B0 B0A0 A0A1 A1B1 B1B0 B0A0" />
	</vehicle>
	<vehicle id="RL_17" type="rl-priority" depart="0.0">
		<route edges="C0B0 B0B1 B1A1 A1A0 A0B0 B0C0 C0D0 D0D1 D1C1 C1B1 B1B2 B2C2 C2C1 C1B1 B1A1 A1A2 A2B2 B2B1 B1C1 C1D1 D1D2 D2E2 E2E1 E1D1 D1C1 C1C2 C2D2 D2E2 E2E1 E1E0 E0D0 D0C0 C0B0 B0B1 B1C1 C1C2 C2D2 D2C2 C2B2 B2A2 A2A1 A1B1 B1C1 C1C2 C2D2 D2C2 C2C1 C1D1 D1D0 D0C0 C0C1 C1C2 C2D2 D2D1 D1C1 C1C2 C2D2 D2C2 C2C1 C1C0 C0B0 B0B1 B1C1 C1D1 D1E1 E1E0 E0D0 D0D1 D1E1 E1E0 E0D0 D0D1 D1E1 E1E2 E2D2 D2C2 C2B2 B2A2 A2A1 A1B1 B1C1 C1D1 D1D0 D0C0 C0B0 B0B1 B1B2 B2C2 C2C1 C1B1 B1A1 A1A2 A2B2 B2B1 B1B0 B0A0 A0A1 A1A2 A2B2 B2B1 B1C1 C1D1 D1E1 E1E2 E2D2 D2C2 C2B2 B2A2 A2A1 A1B1 B1B0 B0A0 A0A1 A1A2 A2B2 B2C2 C2D2 D2D1 D1E1 E1E2 E2D2 D2C2 C2C1 C1C0 C0B0 B0B1 B1B2 B2C2 C2D2 D2C2 C2B2 B2A2 A2A1 A1B1 B1C1 C1D1 D1E1 E1E0 E0D0 D0D1 D1E1 E1E2 E2D2 D2C2 C2B2 B2A2 A2A1 A1B1 B1C1 C1D1 D1D0 D0C0 C0B0 B0B1 B1B2 B2C2 C2D2 D2E2 E2E1 E1D1 D1C1 C1B1 B1A1 A1A0 A0B0 B0C0 C0D0 D0E0 E0E1 E1E2 E2D2 D2C2 C2C1 C1B1 B1B2 B2C2 C2D2 D2C2 C2C1 C1C0 C0B0 B0A0 A0A1 A1B1 B1C1 C1D1 D1D2 D2E2 E2E1 E1D1 D1C1 C1B1 B1A1 A1A2 A2B2 B2B1 B1B0" />
	</vehicle>
	<vehicle id="RL_18" type="rl-priority" depart="0.0">
		<route edges="A1B1 B1C1 C1C2 C2D2 D2C2 C2B2 B2A2 A2A1 A1B1 B1C1 C1C2 C2D2 D2C2 C2C1 C1B1 B1A1 A1A0 A0B0 B0C0 C0C1 C1D1 D1E1 E1E0 E0D0 D0C0 C0B0 B0B1 B1C1 C1C0 C0B0 B0A0 A0A1 A1A2 A2B2 B2C2 C2C1 C1B1 B1B2 B2C2 C2D2 D2D1 D1E1 E1E0 E0D0 D0C0 C0C1 C1C2 C2D2 D2D1 D1D0 D0C0 C0B0 B0A0 A0A1 A1A2 A2B2 B2C2 C2D2 D2C2 C2B2 B2A2 A2A1 A1A0 A0B0 B0C0 C0C1 C1D1 D1E1 E1E0 E0D0 D0D1 D1E1 E1E2 E2D2 D2C2 C2C1 C1B1 B1A1 A1A2 A2B2 B2B1 B1C1 C1D1 D1E1 E1E2 E2D2 D2C2 C2C1 C1D1 D1E1 E1E0 E0D0 D0D1 D1D2 D2E2 E2E1 E1E0 E0D0 D0C0 C0B0 B0A0 A0A1 A1B1 B1C1 C1C0 C0B0 B0B1 B1A1 A1A0 A0B0 B0C0 C0C1 C1C2 C2D2 D2C2 C2B2 B2A2 A2A1 A1A0 A0B0 B0C0 C0C1 C1D1 D1E1 E1E2 E2D2 D2C2 C2C1 C1B1 B1B2 B2C2 C2D2 D2D1 D1C1 C1C0 C0B0 B0A0 A0A1 A1B1 B1C1 C1C0 C0B0 B0B1 B1A1 A1A0 A0B0 B0C0 C0C1 C1D1 D1D0 D0C0 C0B0 B0B1 B1B2 B2C2 C2D2 D2E2 E2E1 E1D1 D1D0 D0C0 C0B0 B0B1 B1C1 C1C0 C0B0 B0A0 A0A1 A1B1 B1B0 B0A0 A0A1 A1A2 A2B2 B2B1 B1A1 A1A0 A0B0 B0C0 C0D0 D0E0 E0E1 E1E2 E2D2 D2C2 C2C1 C1C0 C0B0 B0A0 A0A1 A1A2 A2B2 B2C2 C2C1 C1B1 B1A1 A1A0 A0B0 B0C0 C0D0 D0D1 D1C1 C1B1 B1B2 B2C2" />
	</vehicle>
	<vehicle id="RL_19" type="rl-priority" depart="0.0">
		<route edges="D1D2 D2E2 E2E1 E1D1 D1C1 C1C2 C2D2 D2D1 D1D0 D0C0 C0C1 C1D1 D1D0 D0C0 C0B0 B0B1 B1C1 C1D1 D1D0 D0C0 C0B0 B0A0 A0A1 A1A2 A2B2 B2B1 B1B0 B0A0 A0A1 A1A2 A2B2 B2B1 B1A1 A1A2 A2B2 B2C2 C2C1 C1D1 D1E1 E1E0 E0D0 D0C0 C0B0 B0B1 B1A1 A1A0 A0B0 B0C0 C0D0 D0E0 E0E1 E1E2 E2D2 D2C2 C2C1 C1C0 C0B0 B0B1 B1A1 A1A0 A0B0 B0C0 C0C1 C1D1 D1E1 E1E0 E0D0 D0C0 C0B0 B0B1 B1A1 A1A0 A0B0 B0C0 C0D0 D0D1 D1C1 C1B1 B1A1 A1A2 A2B2 B2B1 B1B0 B0A0 A0A1 A1B1 B1B2 B2C2 C2C1 C1B1 B1B2 B2C2 C2D2 D2D1 D1C1 C1C2 C2D2 D2D1 D1C1 C1B1 B1A1 A1A2 A2B2 B2C2 C2D2 D2D1 D1D0 D0C0 C0C1 C1C2 C2D2 D2D1 D1C1 C1B1 B1A1 A1A0 A0B0 B0C0 C0C1 C1C2 C2D2 D2D1 D1C1 C1C2 C2D2 D2C2 C2C1 C1C0 C0B0 B0A0 A0A1 A1B1 B1C1 C1C2 C2D2 D2E2 E2E1 E1E0 E0D0 D0C0 C0C1 C1D1 D1D0 D0C0 C0C1 C1C2 C2D2 D2C2 C2C1 C1D1 D1E1 E1E0 E0D0 D0D1 D1E1 E1E2 E2D2 D2C2 C2C1 C1B1 B1B2 B2C2 C2D2 D2C2 C2B2 B2A2 A2A1 A1B1 B1C1 C1C0 C0B0 B0B1 B1C1 C1D1 D1D0 D0C0 C0C1 C1C2 C2D2 D2D1 D1C1 C1B1 B1B2 B2C2 C2C1 C1C0 C0B0 B0A0 A0A1 A1B1 B1C1 C1C2 C2D2 D2C2 C2B2" />
	</vehicle>
	<vehicle id="RL_20" type="rl-priority" depart="0.0">
		<route edges="B2A2 A2A1 A1B1 B1C1 C1D1 D1E1 E1E0 E0D0 D0C0 C0B0 B0A0 A0A1 A1A2 A2B2 B2B1 B1A1 A1A0 A0B0 B0C0 C0D0 D0E0 E0E1 E1E2 E2D2 D2C2 C2C1 C1D1 D1D0 D0C0 C0B0 B0A0 A0A1 A1B1 B1C1 C1D1 D1E1 E1E2 E2D2 D2C2 C2C1 C1D1 D1D2 D2E2 E2E1 E1D1 D1C1 C1C0 C0B0 B0B1 B1C1 C1D1 D1E1 E1E0 E0D0 D0D1 D1C1 C1B1 B1A1 A1A0 A0B0 B0C0 C0D0 D0E0 E0E1 E1E2 E2D2 D2C2 C2C1 C1C0 C0B0 B0B1 B1C1 C1C0 C0B0 B0A0 A0A1 A1A2 A2B2 B2C2 C2D2 D2D1 D1D0 D0C0 C0B0 B0A0 A0A1 A1A2 A2B2 B2B1 B1B0 B0A0 A0A1 A1A2 A2B2 B2B1 B1A1 A1A0 A0B0 B0C0 C0D0 D0D1 D1C1 C1B1 B1B2 B2C2 C2D2 D2C2 C2B2 B2A2 A2A1 A1A0 A0B0 B0C0 C0D0 D0E0 E0E1 E1E2 E2D2 D2C2 C2B2 B2A2 A2A1 A1B1 B1C1 C1D1 D1E1 E1E0 E0D0 D0D1 D1C1 C1B1 B1A1 A1A2 A2B2 B2B1 B1C1 C1D1 D1D2 D2E2 E2E1 E1D1 D1C1 C1B1 B1A1 A1A2 A2B2 B2B1 B1A1 A1A0 A0B0 B0C0 C0C1 C1C2 C2D2 D2C2 C2C1 C1D1 D1D0 D0C0 C0B0 B0B1 B1A1 A1A0 A0B0 B0C0 C0C1 C1C2 C2D2 D2C2 C2C1 C1B1 B1A1 A1A2 A2B2 B2B1 B1C1 C1D1 D1D0 D0C0 C0C1 C1D1 D1E1 E1E2 E2D2 D2C2 C2C1 C1D1 D1E1 E1E0 E0D0 D0D1 D1C1 C1B1 B1B2 B2C2 C2C1 C1C0 C0B0 B0B1 B1C1 C1C0 C0B0 B0A0 A0A1 A1B1 B1C1 C1D1 D1E1 E1E0 E0D0 D0C0 C0C1 C1C2 C2D2 D2D1 D1D0 D0C0 C0B0 B0B1" />
	</vehicle>
	<vehicle id="RL_21" type="rl-priority" depart="0.0">
		<route edges="B1B0 B0A0 A0A1 A1A2 A2B2 B2C2 C2D2 D2E2 E2E1 E1D1 D1D0 D0C0 C0B0 B0B1 B1A1 A1A0 A0B0 B0C0 C0D0 D0E0 E0E1 E1E2 E2D2 D2C2 C2C1 C1D1 D1E1 E1E0 E0D0 D0C0 C0C1 C1C2 C2D2 D2D1 D1C1 C1B1 B1A1 A1A2 A2B2 B2B1 B1C1 C1D1 D1D2 D2E2 E2E1 E1E0 E0D0 D0D1 D1E1 E1E0 E0D0 D0C0 C0B0 B0B1 B1A1 A1A0 A0B0 B0C0 C0D0 D0E0 E0E1 E1E2 E2D2 D2C2 C2C1 C1B1 B1A1 A1A2 A2B2 B2C2 C2D2 D2D1 D1C1 C1C2 C2D2 D2C2 C2C1 C1D1 D1D0 D0C0 C0C1 C1C2 C2D2 D2D1 D1E1 E1E2 E2D2 D2C2 C2B2 B2A2 A2A1 A1B1 B1C1 C1C0 C0B0 B0B1 B1C1 C1D1 D1E1 E1E2 E2D2 D2C2 C2C1 C1D1 D1D0 D0C0 C0B0 B0B1 B1B2 B2C2 C2C1 C1D1 D1D2 D2E2 E2E1 E1D1 D1C1 C1C2 C2D2 D2C2 C2C1 C1D1 D1E1 E1E0 E0D0 D0D1 D1D2 D2E2 E2E1 E1D1 D1C1 C1B1 B1B2 B2C2 C2D2 D2D1 D1C1 C1C2 C2D2 D2E2 E2E1 E1E0 E0D0 D0D1 D1D2 D2E2 E2E1 E1D1 D1D0 D0C0 C0C1 C1C2 C2D2 D2E2 E2E1 E1D1 D1D0 D0C0 C0B0 B0A0 A0A1 A1A2 A2B2 B2C2 C2D2 D2C2 C2B2 B2A2 A2A1 A1B1 B1C1 C1D1 D1E1 E1E2 E2D2 D2C2 C2C1 C1B1 B1B2 B2C2 C2D2 D2D1 D1C1 C1C2 C2D2 D2C2 C2B2 B2A2 A2A1 A1A0 A0B0 B0C0 C0C1 C1D1 D1D0 D0C0 C0B0 B0A0" />
	</vehicle>
	<vehicle id="RL_22" type="rl-priority" depart="0.0">
		<route edges="C0D0 D0D1 D1C1 C1C2 C2D2 D2D1 D1D0 D0C0 C0B0 B0B1 B1A1 A1A2 A2B2 B2C2 C2C1 C1B1 B1B2 B2C2 C2D2 D2D1 D1E1 E1E0 E0D0 D0D1 D1C1 C1B1 B1A1 A1A0 A0B0 B0C0 C0D0 D0E0 E0E1 E1E2 E2D2 D2C2 C2B2 B2A2 A2A1 A1B1 B1C1 C1D1 D1E1 E1E0 E0D0 D0D1 D1E1 E1E2 E2D2 D2C2 C2B2 B2A2 A2A1 A1B1 B1C1 C1C0 C0B0 B0B1 B1A1 A1A0 A0B0 B0C0 C0C1 C1C2 C2D2 D2C2 C2C1 C1D1 D1D0 D0C0 C0B0 B0B1 B1A1 A1A2 A2B2 B2B1 B1A1 A1A0 A0B0 B0C0 C0D0 D0D1 D1C1 C1B1 B1A1 A1A2 A2B2 B2C2 C2D2 D2C2 C2C1 C1D1 D1D2 D2E2 E2E1 E1D1 D1C1 C1B1 B1A1 A1A2 A2B2 B2B1 B1A1 A1A0 A0B0 B0C0 C0D0 D0D1 D1C1 C1C0 C0B0 B0B1 B1A1 A1A2 A2B2 B2C2 C2C1 C1C0 C0B0 B0B1 B1B2 B2C2 C2D2 D2E2 E2E1 E1D1 D1C1 C1B1 B1A1 A1A0 A0B0 B0C0 C0C1 C1C2 C2D2 D2C2 C2B2 B2A2 A2A1 A1A0 A0B0 B0C0 C0D0 D0E0 E0E1 E1E2 E2D2 D2C2 C2C1 C1D1 D1D2 D2E2 E2E1 E1E0 E0D0 D0C0 C0B0 B0A0 A0A1 A1A2 A2B2 B2B1 B1A1 A1A2 A2B2 B2C2 C2D2 D2E2 E2E1 E1D1 D1D0 D0C0 C0B0 B0A0 A0A1 A1B1 B1B0 B0A0 A0A1 A1B1 B1C1 C1C2 C2D2 D2E2 E2E1 E1D1 D1C1 C1B1 B1B2" />
	</vehicle>
	<vehicle id="RL_23" type="rl-priority" depart="0.0">