<configuration>
    <input>
       <additional-files value="loopDetectors.add.xml"/>
       <net-file value="Grid1.net.xml"/>
       <route-files value="routes.rou.xml"/>
    </input>     
</configuration>
