<connections>
	<connection from="-1005" to="-612" fromLane="0" toLane="0" />
	<connection from="-1005" to="1011" fromLane="0" toLane="0" />
	<connection from="-1005" to="-612" fromLane="0" toLane="0" />
	<connection from="-1005" to="1011" fromLane="0" toLane="0" />
	<connection from="-1005" to="1011" fromLane="0" toLane="0" />
	<connection from="-1011" to="1005" fromLane="0" toLane="0" />
	<connection from="-1011" to="1005" fromLane="0" toLane="0" />
	<connection from="-1011" to="-612" fromLane="0" toLane="0" />
	<connection from="-1011" to="-612" fromLane="0" toLane="0" />
	<connection from="-1027" to="-698" fromLane="0" toLane="0" />
	<connection from="-1027" to="-698" fromLane="0" toLane="0" />
	<connection from="-1027" to="-698" fromLane="0" toLane="0" />
	<connection from="-1029" to="-728" fromLane="0" toLane="0" />
	<connection from="-1029" to="-728" fromLane="0" toLane="0" />
	<connection from="-1029" to="870" fromLane="0" toLane="0" />
	<connection from="-1029" to="870" fromLane="0" toLane="0" />
	<connection from="-1033" to="-734" fromLane="0" toLane="0" />
	<connection from="-1033" to="-734" fromLane="0" toLane="0" />
	<connection from="-1033" to="-734" fromLane="0" toLane="0" />
	<connection from="-1057" to="-523" fromLane="0" toLane="0" />
	<connection from="-1057" to="-589" fromLane="0" toLane="0" />
	<connection from="-1057" to="-589" fromLane="0" toLane="0" />
	<connection from="-1057" to="-589" fromLane="0" toLane="0" />
	<connection from="-1057" to="-1415" fromLane="0" toLane="0" />
	<connection from="-1093" to="-1029" fromLane="0" toLane="0" />
	<connection from="-1093" to="-1005" fromLane="0" toLane="0" />
	<connection from="-1093" to="-1029" fromLane="0" toLane="0" />
	<connection from="-1093" to="-1005" fromLane="0" toLane="0" />
	<connection from="-1093" to="-1005" fromLane="0" toLane="0" />
	<connection from="-11" to="3" fromLane="0" toLane="0" />
	<connection from="-11" to="9" fromLane="0" toLane="0" />
	<connection from="-11" to="9" fromLane="0" toLane="0" />
	<connection from="-11" to="9" fromLane="0" toLane="0" />
	<connection from="-11" to="7" fromLane="0" toLane="0" />
	<connection from="-116" to="64" fromLane="0" toLane="0" />
	<connection from="-116" to="-17" fromLane="0" toLane="0" />
	<connection from="-116" to="-17" fromLane="0" toLane="0" />
	<connection from="-116" to="-13" fromLane="0" toLane="0" />
	<connection from="-116" to="38" fromLane="0" toLane="0" />
	<connection from="-117" to="-15" fromLane="0" toLane="0" />
	<connection from="-117" to="119" fromLane="0" toLane="0" />
	<connection from="-117" to="119" fromLane="0" toLane="0" />
	<connection from="-117" to="119" fromLane="0" toLane="0" />
	<connection from="-119" to="117" fromLane="0" toLane="0" />
	<connection from="-119" to="117" fromLane="0" toLane="0" />
	<connection from="-119" to="117" fromLane="0" toLane="0" />
	<connection from="-119" to="-15" fromLane="0" toLane="0" />
	<connection from="-119" to="-15" fromLane="0" toLane="0" />
	<connection from="-1199" to="1201" fromLane="0" toLane="0" />
	<connection from="-1199" to="-1027" fromLane="0" toLane="0" />
	<connection from="-1199" to="-1027" fromLane="0" toLane="0" />
	<connection from="-1199" to="-1027" fromLane="0" toLane="0" />
	<connection from="-1201" to="-1027" fromLane="0" toLane="0" />
	<connection from="-1201" to="-1027" fromLane="0" toLane="0" />
	<connection from="-1201" to="1199" fromLane="0" toLane="0" />
	<connection from="-1201" to="1199" fromLane="0" toLane="0" />
	<connection from="-121" to="123" fromLane="0" toLane="0" />
	<connection from="-121" to="125" fromLane="0" toLane="0" />
	<connection from="-121" to="125" fromLane="0" toLane="0" />
	<connection from="-121" to="125" fromLane="0" toLane="0" />
	<connection from="-121" to="-19" fromLane="0" toLane="0" />
	<connection from="-123" to="125" fromLane="0" toLane="0" />
	<connection from="-123" to="-19" fromLane="0" toLane="0" />
	<connection from="-123" to="-19" fromLane="0" toLane="0" />
	<connection from="-123" to="-19" fromLane="0" toLane="0" />
	<connection from="-123" to="121" fromLane="0" toLane="0" />
	<connection from="-125" to="-19" fromLane="0" toLane="0" />
	<connection from="-125" to="121" fromLane="0" toLane="0" />
	<connection from="-125" to="121" fromLane="0" toLane="0" />
	<connection from="-125" to="121" fromLane="0" toLane="0" />
	<connection from="-125" to="123" fromLane="0" toLane="0" />
	<connection from="-126" to="210" fromLane="0" toLane="0" />
	<connection from="-126" to="128" fromLane="0" toLane="0" />
	<connection from="-126" to="138" fromLane="0" toLane="0" />
	<connection from="-126" to="138" fromLane="0" toLane="0" />
	<connection from="-126" to="138" fromLane="0" toLane="0" />
	<connection from="-126" to="-25" fromLane="0" toLane="0" />
	<connection from="-128" to="138" fromLane="0" toLane="0" />
	<connection from="-128" to="-25" fromLane="0" toLane="0" />
	<connection from="-128" to="-25" fromLane="0" toLane="0" />
	<connection from="-128" to="-25" fromLane="0" toLane="0" />
	<connection from="-128" to="126" fromLane="0" toLane="0" />
	<connection from="-128" to="210" fromLane="0" toLane="0" />
	<connection from="-13" to="-3" fromLane="0" toLane="0" />
	<connection from="-13" to="15" fromLane="0" toLane="0" />
	<connection from="-13" to="15" fromLane="0" toLane="0" />
	<connection from="-1323" to="-882" fromLane="0" toLane="0" />
	<connection from="-1323" to="-1033" fromLane="0" toLane="0" />
	<connection from="-1323" to="-1033" fromLane="0" toLane="0" />
	<connection from="-1342" to="1343" fromLane="0" toLane="0" />
	<connection from="-1342" to="-1093" fromLane="0" toLane="0" />
	<connection from="-1342" to="1343" fromLane="0" toLane="0" />
	<connection from="-1342" to="1343" fromLane="0" toLane="0" />
	<connection from="-1342" to="-1093" fromLane="0" toLane="0" />
	<connection from="-1342" to="-1093" fromLane="0" toLane="0" />
	<connection from="-1343" to="-1093" fromLane="0" toLane="0" />
	<connection from="-1343" to="1342" fromLane="0" toLane="0" />
	<connection from="-1343" to="1342" fromLane="0" toLane="0" />
	<connection from="-1343" to="1342" fromLane="0" toLane="0" />
	<connection from="-1345" to="-1342" fromLane="0" toLane="0" />
	<connection from="-1345" to="-1011" fromLane="0" toLane="0" />
	<connection from="-1345" to="-1011" fromLane="0" toLane="0" />
	<connection from="-1345" to="-1011" fromLane="0" toLane="0" />
	<connection from="-1357" to="-880" fromLane="0" toLane="0" />
	<connection from="-1357" to="1494" fromLane="0" toLane="0" />
	<connection from="-1357" to="1494" fromLane="0" toLane="0" />
	<connection from="-1357" to="1494" fromLane="0" toLane="0" />
	<connection from="-1357" to="-1767" fromLane="0" toLane="0" />
	<connection from="-1359" to="-1323" fromLane="0" toLane="0" />
	<connection from="-1359" to="1363" fromLane="0" toLane="0" />
	<connection from="-1359" to="1363" fromLane="0" toLane="0" />
	<connection from="-1359" to="1363" fromLane="0" toLane="0" />
	<connection from="-1359" to="1373" fromLane="0" toLane="0" />
	<connection from="-1363" to="1373" fromLane="0" toLane="0" />
	<connection from="-1363" to="1359" fromLane="0" toLane="0" />
	<connection from="-1363" to="-1323" fromLane="0" toLane="0" />
	<connection from="-1363" to="-1323" fromLane="0" toLane="0" />
	<connection from="-1363" to="-1323" fromLane="0" toLane="0" />
	<connection from="-1373" to="1359" fromLane="0" toLane="0" />
	<connection from="-1373" to="-1323" fromLane="0" toLane="0" />
	<connection from="-1373" to="-1323" fromLane="0" toLane="0" />
	<connection from="-1373" to="-1323" fromLane="0" toLane="0" />
	<connection from="-1373" to="1363" fromLane="0" toLane="0" />
	<connection from="-138" to="-25" fromLane="0" toLane="0" />
	<connection from="-138" to="126" fromLane="0" toLane="0" />
	<connection from="-138" to="126" fromLane="0" toLane="0" />
	<connection from="-138" to="126" fromLane="0" toLane="0" />
	<connection from="-138" to="210" fromLane="0" toLane="0" />
	<connection from="-138" to="128" fromLane="0" toLane="0" />
	<connection from="-1388" to="-533" fromLane="0" toLane="0" />
	<connection from="-1388" to="-533" fromLane="0" toLane="0" />
	<connection from="-1388" to="-533" fromLane="0" toLane="0" />
	<connection from="-1391" to="-569" fromLane="0" toLane="0" />
	<connection from="-1391" to="-569" fromLane="0" toLane="0" />
	<connection from="-1391" to="-569" fromLane="0" toLane="0" />
	<connection from="-1396" to="-1345" fromLane="0" toLane="0" />
	<connection from="-1396" to="1404" fromLane="0" toLane="0" />
	<connection from="-1396" to="1404" fromLane="0" toLane="0" />
	<connection from="-1404" to="1396" fromLane="0" toLane="0" />
	<connection from="-1404" to="-1345" fromLane="0" toLane="0" />
	<connection from="-1404" to="-1345" fromLane="0" toLane="0" />
	<connection from="-1404" to="-1345" fromLane="0" toLane="0" />
	<connection from="-1415" to="-1357" fromLane="0" toLane="0" />
	<connection from="-1415" to="-1357" fromLane="0" toLane="0" />
	<connection from="-1415" to="-1357" fromLane="0" toLane="0" />
	<connection from="-1415" to="1425" fromLane="0" toLane="0" />
	<connection from="-1415" to="1425" fromLane="0" toLane="0" />
	<connection from="-1425" to="1415" fromLane="0" toLane="0" />
	<connection from="-1425" to="1415" fromLane="0" toLane="0" />
	<connection from="-1425" to="-1357" fromLane="0" toLane="0" />
	<connection from="-1425" to="-1357" fromLane="0" toLane="0" />
	<connection from="-1427" to="-1363" fromLane="0" toLane="0" />
	<connection from="-1427" to="1429" fromLane="0" toLane="0" />
	<connection from="-1427" to="1429" fromLane="0" toLane="0" />
	<connection from="-1427" to="1429" fromLane="0" toLane="0" />
	<connection from="-1429" to="1427" fromLane="0" toLane="0" />
	<connection from="-1429" to="1427" fromLane="0" toLane="0" />
	<connection from="-1429" to="1427" fromLane="0" toLane="0" />
	<connection from="-1429" to="-1363" fromLane="0" toLane="0" />
	<connection from="-1429" to="-1363" fromLane="0" toLane="0" />
	<connection from="-1431" to="1441" fromLane="0" toLane="0" />
	<connection from="-1431" to="1447" fromLane="0" toLane="0" />
	<connection from="-1431" to="-1373" fromLane="0" toLane="0" />
	<connection from="-1431" to="-1373" fromLane="0" toLane="0" />
	<connection from="-1431" to="-1427" fromLane="0" toLane="0" />
	<connection from="-1431" to="-1427" fromLane="0" toLane="0" />
	<connection from="-1441" to="1447" fromLane="0" toLane="0" />
	<connection from="-1441" to="-1373" fromLane="0" toLane="0" />
	<connection from="-1441" to="-1427" fromLane="0" toLane="0" />
	<connection from="-1441" to="-1427" fromLane="0" toLane="0" />
	<connection from="-1441" to="-1427" fromLane="0" toLane="0" />
	<connection from="-1441" to="1431" fromLane="0" toLane="0" />
	<connection from="-1447" to="-1373" fromLane="0" toLane="0" />
	<connection from="-1447" to="-1427" fromLane="0" toLane="0" />
	<connection from="-1447" to="-1427" fromLane="0" toLane="0" />
	<connection from="-1447" to="1431" fromLane="0" toLane="0" />
	<connection from="-1447" to="1441" fromLane="0" toLane="0" />
	<connection from="-1464" to="-1388" fromLane="0" toLane="0" />
	<connection from="-1464" to="-1391" fromLane="0" toLane="0" />
	<connection from="-1464" to="-1391" fromLane="0" toLane="0" />
	<connection from="-1464" to="-1391" fromLane="0" toLane="0" />
	<connection from="-1483" to="-1425" fromLane="0" toLane="0" />
	<connection from="-1483" to="-1425" fromLane="0" toLane="0" />
	<connection from="-1483" to="-1425" fromLane="0" toLane="0" />
	<connection from="-1483" to="1493" fromLane="0" toLane="0" />
	<connection from="-1483" to="1493" fromLane="0" toLane="0" />
	<connection from="-1493" to="1483" fromLane="0" toLane="0" />
	<connection from="-1493" to="-1425" fromLane="0" toLane="0" />
	<connection from="-1493" to="-1425" fromLane="0" toLane="0" />
	<connection from="-1494" to="-1767" fromLane="0" toLane="0" />
	<connection from="-1494" to="1357" fromLane="0" toLane="0" />
	<connection from="-1494" to="1357" fromLane="0" toLane="0" />
	<connection from="-1494" to="1357" fromLane="0" toLane="0" />
	<connection from="-1494" to="-880" fromLane="0" toLane="0" />
	<connection from="-1499" to="1517" fromLane="0" toLane="0" />
	<connection from="-1499" to="-1429" fromLane="0" toLane="0" />
	<connection from="-1499" to="1523" fromLane="0" toLane="0" />
	<connection from="-1499" to="1523" fromLane="0" toLane="0" />
	<connection from="-1499" to="1523" fromLane="0" toLane="0" />
	<connection from="-1499" to="1501" fromLane="0" toLane="0" />
	<connection from="-15" to="13" fromLane="0" toLane="0" />
	<connection from="-15" to="-3" fromLane="0" toLane="0" />
	<connection from="-15" to="-3" fromLane="0" toLane="0" />
	<connection from="-15" to="-3" fromLane="0" toLane="0" />
	<connection from="-1501" to="1499" fromLane="0" toLane="0" />
	<connection from="-1501" to="1517" fromLane="0" toLane="0" />
	<connection from="-1501" to="1517" fromLane="0" toLane="0" />
	<connection from="-1501" to="1517" fromLane="0" toLane="0" />
	<connection from="-1501" to="-1429" fromLane="0" toLane="0" />
	<connection from="-1501" to="1523" fromLane="0" toLane="0" />
	<connection from="-1517" to="-1429" fromLane="0" toLane="0" />
	<connection from="-1517" to="1523" fromLane="0" toLane="0" />
	<connection from="-1517" to="1501" fromLane="0" toLane="0" />
	<connection from="-1517" to="1501" fromLane="0" toLane="0" />
	<connection from="-1517" to="1501" fromLane="0" toLane="0" />
	<connection from="-1517" to="1499" fromLane="0" toLane="0" />
	<connection from="-1523" to="1501" fromLane="0" toLane="0" />
	<connection from="-1523" to="1499" fromLane="0" toLane="0" />
	<connection from="-1523" to="1499" fromLane="0" toLane="0" />
	<connection from="-1523" to="1499" fromLane="0" toLane="0" />
	<connection from="-1523" to="1517" fromLane="0" toLane="0" />
	<connection from="-1523" to="-1429" fromLane="0" toLane="0" />
	<connection from="-1524" to="-1431" fromLane="0" toLane="0" />
	<connection from="-1524" to="1526" fromLane="0" toLane="0" />
	<connection from="-1524" to="1526" fromLane="0" toLane="0" />
	<connection from="-1524" to="1526" fromLane="0" toLane="0" />
	<connection from="-1524" to="1532" fromLane="0" toLane="0" />
	<connection from="-1526" to="1532" fromLane="0" toLane="0" />
	<connection from="-1526" to="1524" fromLane="0" toLane="0" />
	<connection from="-1526" to="1524" fromLane="0" toLane="0" />
	<connection from="-1526" to="1524" fromLane="0" toLane="0" />
	<connection from="-1526" to="-1431" fromLane="0" toLane="0" />
	<connection from="-1532" to="1524" fromLane="0" toLane="0" />
	<connection from="-1532" to="-1431" fromLane="0" toLane="0" />
	<connection from="-1532" to="-1431" fromLane="0" toLane="0" />
	<connection from="-1532" to="-1431" fromLane="0" toLane="0" />
	<connection from="-1532" to="1526" fromLane="0" toLane="0" />
	<connection from="-1533" to="-1441" fromLane="0" toLane="0" />
	<connection from="-1533" to="-1524" fromLane="0" toLane="0" />
	<connection from="-1533" to="-1524" fromLane="0" toLane="0" />
	<connection from="-1533" to="-1524" fromLane="0" toLane="0" />
	<connection from="-1535" to="-1447" fromLane="0" toLane="0" />
	<connection from="-1535" to="-1533" fromLane="0" toLane="0" />
	<connection from="-1535" to="-1533" fromLane="0" toLane="0" />
	<connection from="-1535" to="-1533" fromLane="0" toLane="0" />
	<connection from="-1535" to="-1494" fromLane="0" toLane="0" />
	<connection from="-17" to="19" fromLane="0" toLane="0" />
	<connection from="-17" to="25" fromLane="0" toLane="0" />
	<connection from="-17" to="25" fromLane="0" toLane="0" />
	<connection from="-17" to="25" fromLane="0" toLane="0" />
	<connection from="-17" to="-9" fromLane="0" toLane="0" />
	<connection from="-1767" to="-1493" fromLane="0" toLane="0" />
	<connection from="-1767" to="-1493" fromLane="0" toLane="0" />
	<connection from="-1767" to="-1493" fromLane="0" toLane="0" />
	<connection from="-1769" to="-1499" fromLane="0" toLane="0" />
	<connection from="-1769" to="1771" fromLane="0" toLane="0" />
	<connection from="-1769" to="1771" fromLane="0" toLane="0" />
	<connection from="-1769" to="1771" fromLane="0" toLane="0" />
	<connection from="-1771" to="1769" fromLane="0" toLane="0" />
	<connection from="-1771" to="1769" fromLane="0" toLane="0" />
	<connection from="-1771" to="-1499" fromLane="0" toLane="0" />
	<connection from="-1771" to="-1499" fromLane="0" toLane="0" />
	<connection from="-1773" to="1775" fromLane="0" toLane="0" />
	<connection from="-1773" to="1775" fromLane="0" toLane="0" />
	<connection from="-1773" to="1775" fromLane="0" toLane="0" />
	<connection from="-1773" to="-1501" fromLane="0" toLane="0" />
	<connection from="-1773" to="1774" fromLane="0" toLane="0" />
	<connection from="-1774" to="1773" fromLane="0" toLane="0" />
	<connection from="-1774" to="1775" fromLane="0" toLane="0" />
	<connection from="-1774" to="1775" fromLane="0" toLane="0" />
	<connection from="-1774" to="1775" fromLane="0" toLane="0" />
	<connection from="-1774" to="-1501" fromLane="0" toLane="0" />
	<connection from="-1775" to="-1501" fromLane="0" toLane="0" />
	<connection from="-1775" to="1774" fromLane="0" toLane="0" />
	<connection from="-1775" to="1773" fromLane="0" toLane="0" />
	<connection from="-1775" to="1773" fromLane="0" toLane="0" />
	<connection from="-1775" to="1773" fromLane="0" toLane="0" />
	<connection from="-1783" to="-1517" fromLane="0" toLane="0" />
	<connection from="-1783" to="-1517" fromLane="0" toLane="0" />
	<connection from="-1783" to="-1517" fromLane="0" toLane="0" />
	<connection from="-1783" to="-1769" fromLane="0" toLane="0" />
	<connection from="-1783" to="1797" fromLane="0" toLane="0" />
	<connection from="-1797" to="1783" fromLane="0" toLane="0" />
	<connection from="-1797" to="-1517" fromLane="0" toLane="0" />
	<connection from="-1797" to="-1517" fromLane="0" toLane="0" />
	<connection from="-1797" to="-1517" fromLane="0" toLane="0" />
	<connection from="-1797" to="-1769" fromLane="0" toLane="0" />
	<connection from="-1798" to="-1774" fromLane="0" toLane="0" />
	<connection from="-1798" to="-1523" fromLane="0" toLane="0" />
	<connection from="-1798" to="-1523" fromLane="0" toLane="0" />
	<connection from="-1798" to="-1523" fromLane="0" toLane="0" />
	<connection from="-1798" to="1882" fromLane="0" toLane="0" />
	<connection from="-1882" to="1798" fromLane="0" toLane="0" />
	<connection from="-1882" to="-1774" fromLane="0" toLane="0" />
	<connection from="-1882" to="-1523" fromLane="0" toLane="0" />
	<connection from="-1882" to="-1523" fromLane="0" toLane="0" />
	<connection from="-1882" to="-1523" fromLane="0" toLane="0" />
	<connection from="-1883" to="1891" fromLane="0" toLane="0" />
	<connection from="-1883" to="1891" fromLane="0" toLane="0" />
	<connection from="-1883" to="1891" fromLane="0" toLane="0" />
	<connection from="-1883" to="-1526" fromLane="0" toLane="0" />
	<connection from="-1883" to="-1526" fromLane="0" toLane="0" />
	<connection from="-1891" to="-1526" fromLane="0" toLane="0" />
	<connection from="-1891" to="1883" fromLane="0" toLane="0" />
	<connection from="-1891" to="1883" fromLane="0" toLane="0" />
	<connection from="-1891" to="1883" fromLane="0" toLane="0" />
	<connection from="-19" to="25" fromLane="0" toLane="0" />
	<connection from="-19" to="-9" fromLane="0" toLane="0" />
	<connection from="-19" to="-9" fromLane="0" toLane="0" />
	<connection from="-19" to="-9" fromLane="0" toLane="0" />
	<connection from="-19" to="17" fromLane="0" toLane="0" />
	<connection from="-210" to="128" fromLane="0" toLane="0" />
	<connection from="-210" to="138" fromLane="0" toLane="0" />
	<connection from="-210" to="-25" fromLane="0" toLane="0" />
	<connection from="-210" to="-25" fromLane="0" toLane="0" />
	<connection from="-210" to="-25" fromLane="0" toLane="0" />
	<connection from="-210" to="126" fromLane="0" toLane="0" />
	<connection from="-25" to="-9" fromLane="0" toLane="0" />
	<connection from="-25" to="17" fromLane="0" toLane="0" />
	<connection from="-25" to="17" fromLane="0" toLane="0" />
	<connection from="-25" to="17" fromLane="0" toLane="0" />
	<connection from="-25" to="19" fromLane="0" toLane="0" />
	<connection from="-3" to="9" fromLane="0" toLane="0" />
	<connection from="-3" to="7" fromLane="0" toLane="0" />
	<connection from="-3" to="7" fromLane="0" toLane="0" />
	<connection from="-3" to="7" fromLane="0" toLane="0" />
	<connection from="-3" to="11" fromLane="0" toLane="0" />
	<connection from="-313" to="-38" fromLane="0" toLane="0" />
	<connection from="-313" to="-117" fromLane="0" toLane="0" />
	<connection from="-313" to="-117" fromLane="0" toLane="0" />
	<connection from="-313" to="-117" fromLane="0" toLane="0" />
	<connection from="-313" to="319" fromLane="0" toLane="0" />
	<connection from="-313" to="325" fromLane="0" toLane="0" />
	<connection from="-319" to="325" fromLane="0" toLane="0" />
	<connection from="-319" to="313" fromLane="0" toLane="0" />
	<connection from="-319" to="-38" fromLane="0" toLane="0" />
	<connection from="-319" to="-38" fromLane="0" toLane="0" />
	<connection from="-319" to="-38" fromLane="0" toLane="0" />
	<connection from="-319" to="-117" fromLane="0" toLane="0" />
	<connection from="-325" to="313" fromLane="0" toLane="0" />
	<connection from="-325" to="-38" fromLane="0" toLane="0" />
	<connection from="-325" to="-117" fromLane="0" toLane="0" />
	<connection from="-325" to="-117" fromLane="0" toLane="0" />
	<connection from="-325" to="-117" fromLane="0" toLane="0" />
	<connection from="-325" to="319" fromLane="0" toLane="0" />
	<connection from="-326" to="-121" fromLane="0" toLane="0" />
	<connection from="-326" to="-121" fromLane="0" toLane="0" />
	<connection from="-326" to="-121" fromLane="0" toLane="0" />
	<connection from="-326" to="-64" fromLane="0" toLane="0" />
	<connection from="-326" to="-64" fromLane="0" toLane="0" />
	<connection from="-330" to="-119" fromLane="0" toLane="0" />
	<connection from="-330" to="-119" fromLane="0" toLane="0" />
	<connection from="-330" to="332" fromLane="0" toLane="0" />
	<connection from="-330" to="332" fromLane="0" toLane="0" />
	<connection from="-332" to="330" fromLane="0" toLane="0" />
	<connection from="-332" to="-119" fromLane="0" toLane="0" />
	<connection from="-332" to="-119" fromLane="0" toLane="0" />
	<connection from="-332" to="-119" fromLane="0" toLane="0" />
	<connection from="-333" to="679" fromLane="0" toLane="0" />
	<connection from="-333" to="679" fromLane="0" toLane="0" />
	<connection from="-333" to="679" fromLane="0" toLane="0" />
	<connection from="-333" to="-7" fromLane="0" toLane="0" />
	<connection from="-333" to="356" fromLane="0" toLane="0" />
	<connection from="-336" to="-123" fromLane="0" toLane="0" />
	<connection from="-336" to="338" fromLane="0" toLane="0" />
	<connection from="-336" to="338" fromLane="0" toLane="0" />
	<connection from="-338" to="336" fromLane="0" toLane="0" />
	<connection from="-338" to="-123" fromLane="0" toLane="0" />
	<connection from="-338" to="-123" fromLane="0" toLane="0" />
	<connection from="-338" to="-123" fromLane="0" toLane="0" />
	<connection from="-344" to="-126" fromLane="0" toLane="0" />
	<connection from="-344" to="-125" fromLane="0" toLane="0" />
	<connection from="-344" to="-125" fromLane="0" toLane="0" />
	<connection from="-344" to="-125" fromLane="0" toLane="0" />
	<connection from="-344" to="-570" fromLane="0" toLane="0" />
	<connection from="-348" to="-138" fromLane="0" toLane="0" />
	<connection from="-348" to="-333" fromLane="0" toLane="0" />
	<connection from="-348" to="-333" fromLane="0" toLane="0" />
	<connection from="-349" to="585" fromLane="0" toLane="0" />
	<connection from="-349" to="-381" fromLane="0" toLane="0" />
	<connection from="-349" to="-381" fromLane="0" toLane="0" />
	<connection from="-349" to="-381" fromLane="0" toLane="0" />
	<connection from="-349" to="-210" fromLane="0" toLane="0" />
	<connection from="-356" to="333" fromLane="0" toLane="0" />
	<connection from="-356" to="679" fromLane="0" toLane="0" />
	<connection from="-356" to="679" fromLane="0" toLane="0" />
	<connection from="-356" to="679" fromLane="0" toLane="0" />
	<connection from="-356" to="-7" fromLane="0" toLane="0" />
	<connection from="-361" to="-336" fromLane="0" toLane="0" />
	<connection from="-361" to="-336" fromLane="0" toLane="0" />
	<connection from="-361" to="-336" fromLane="0" toLane="0" />
	<connection from="-361" to="504" fromLane="0" toLane="0" />
	<connection from="-361" to="504" fromLane="0" toLane="0" />
	<connection from="-365" to="-349" fromLane="0" toLane="0" />
	<connection from="-365" to="-344" fromLane="0" toLane="0" />
	<connection from="-365" to="-344" fromLane="0" toLane="0" />
	<connection from="-365" to="-344" fromLane="0" toLane="0" />
	<connection from="-365" to="379" fromLane="0" toLane="0" />
	<connection from="-379" to="365" fromLane="0" toLane="0" />
	<connection from="-379" to="-349" fromLane="0" toLane="0" />
	<connection from="-379" to="-349" fromLane="0" toLane="0" />
	<connection from="-379" to="-349" fromLane="0" toLane="0" />
	<connection from="-379" to="-344" fromLane="0" toLane="0" />
	<connection from="-38" to="116" fromLane="0" toLane="0" />
	<connection from="-38" to="64" fromLane="0" toLane="0" />
	<connection from="-38" to="-17" fromLane="0" toLane="0" />
	<connection from="-38" to="-17" fromLane="0" toLane="0" />
	<connection from="-38" to="-17" fromLane="0" toLane="0" />
	<connection from="-38" to="-13" fromLane="0" toLane="0" />
	<connection from="-381" to="383" fromLane="0" toLane="0" />
	<connection from="-381" to="383" fromLane="0" toLane="0" />
	<connection from="-381" to="383" fromLane="0" toLane="0" />
	<connection from="-381" to="-128" fromLane="0" toLane="0" />
	<connection from="-381" to="-128" fromLane="0" toLane="0" />
	<connection from="-383" to="-128" fromLane="0" toLane="0" />
	<connection from="-383" to="381" fromLane="0" toLane="0" />
	<connection from="-383" to="381" fromLane="0" toLane="0" />
	<connection from="-383" to="381" fromLane="0" toLane="0" />
	<connection from="-492" to="-361" fromLane="0" toLane="0" />
	<connection from="-492" to="496" fromLane="0" toLane="0" />
	<connection from="-492" to="496" fromLane="0" toLane="0" />
	<connection from="-496" to="492" fromLane="0" toLane="0" />
	<connection from="-496" to="-361" fromLane="0" toLane="0" />
	<connection from="-496" to="-361" fromLane="0" toLane="0" />
	<connection from="-496" to="-361" fromLane="0" toLane="0" />
	<connection from="-504" to="361" fromLane="0" toLane="0" />
	<connection from="-504" to="-336" fromLane="0" toLane="0" />
	<connection from="-504" to="-336" fromLane="0" toLane="0" />
	<connection from="-505" to="-338" fromLane="0" toLane="0" />
	<connection from="-505" to="517" fromLane="0" toLane="0" />
	<connection from="-505" to="517" fromLane="0" toLane="0" />
	<connection from="-505" to="517" fromLane="0" toLane="0" />
	<connection from="-505" to="523" fromLane="0" toLane="0" />
	<connection from="-517" to="523" fromLane="0" toLane="0" />
	<connection from="-517" to="505" fromLane="0" toLane="0" />
	<connection from="-517" to="505" fromLane="0" toLane="0" />
	<connection from="-517" to="505" fromLane="0" toLane="0" />
	<connection from="-517" to="-338" fromLane="0" toLane="0" />
	<connection from="-523" to="505" fromLane="0" toLane="0" />
	<connection from="-523" to="-338" fromLane="0" toLane="0" />
	<connection from="-523" to="-338" fromLane="0" toLane="0" />
	<connection from="-523" to="-338" fromLane="0" toLane="0" />
	<connection from="-523" to="517" fromLane="0" toLane="0" />
	<connection from="-533" to="535" fromLane="0" toLane="0" />
	<connection from="-533" to="-365" fromLane="0" toLane="0" />
	<connection from="-533" to="-365" fromLane="0" toLane="0" />
	<connection from="-533" to="-365" fromLane="0" toLane="0" />
	<connection from="-533" to="569" fromLane="0" toLane="0" />
	<connection from="-535" to="-365" fromLane="0" toLane="0" />
	<connection from="-535" to="569" fromLane="0" toLane="0" />
	<connection from="-535" to="569" fromLane="0" toLane="0" />
	<connection from="-535" to="569" fromLane="0" toLane="0" />
	<connection from="-535" to="533" fromLane="0" toLane="0" />
	<connection from="-569" to="533" fromLane="0" toLane="0" />
	<connection from="-569" to="535" fromLane="0" toLane="0" />
	<connection from="-569" to="535" fromLane="0" toLane="0" />
	<connection from="-569" to="535" fromLane="0" toLane="0" />
	<connection from="-569" to="-365" fromLane="0" toLane="0" />
	<connection from="-570" to="-492" fromLane="0" toLane="0" />
	<connection from="-570" to="-492" fromLane="0" toLane="0" />
	<connection from="-570" to="-379" fromLane="0" toLane="0" />
	<connection from="-570" to="-379" fromLane="0" toLane="0" />
	<connection from="-577" to="-383" fromLane="0" toLane="0" />
	<connection from="-577" to="-383" fromLane="0" toLane="0" />
	<connection from="-577" to="-383" fromLane="0" toLane="0" />
	<connection from="-577" to="579" fromLane="0" toLane="0" />
	<connection from="-577" to="579" fromLane="0" toLane="0" />
	<connection from="-579" to="577" fromLane="0" toLane="0" />
	<connection from="-579" to="-383" fromLane="0" toLane="0" />
	<connection from="-579" to="-383" fromLane="0" toLane="0" />
	<connection from="-585" to="-381" fromLane="0" toLane="0" />
	<connection from="-585" to="-210" fromLane="0" toLane="0" />
	<connection from="-585" to="-210" fromLane="0" toLane="0" />
	<connection from="-585" to="349" fromLane="0" toLane="0" />
	<connection from="-585" to="349" fromLane="0" toLane="0" />
	<connection from="-588" to="-325" fromLane="0" toLane="0" />
	<connection from="-588" to="-325" fromLane="0" toLane="0" />
	<connection from="-588" to="589" fromLane="0" toLane="0" />
	<connection from="-588" to="589" fromLane="0" toLane="0" />
	<connection from="-589" to="588" fromLane="0" toLane="0" />
	<connection from="-589" to="-325" fromLane="0" toLane="0" />
	<connection from="-589" to="-325" fromLane="0" toLane="0" />