<?xml version="1.0" encoding="UTF-8"?>

<!-- generated on 2024-01-19 08:54:44.063504 by randomTrips.py v1_18_0+0000-03ecfdea036
<configuration>
    <net-file value="SimpleRandom_Static.net.xml"/>
    <output-trip-file value="trips.xml"/>
    <route-file value="long_routes.rou.xml"/>
    <intermediate value="40"/>
    <period value="0.05"/>
</configuration>
-->

<!-- generated on 2024-01-19 08:53:23 by Eclipse SUMO duarouter Version 1.18.0
<configuration xmlns:xsi="http://www.w3.org/2001/XMLSchema-instance" xsi:noNamespaceSchemaLocation="http://sumo.dlr.de/xsd/duarouterConfiguration.xsd">

    <input>
        <net-file value="SimpleRandom_Static.net.xml"/>
        <route-files value="trips.xml"/>
    </input>

    <output>
        <output-file value="long_routes.rou.xml"/>
        <alternatives-output value="NUL"/>
    </output>

    <time>
        <begin value="0.0"/>
        <end value="3600.0"/>
    </time>

    <report>
        <no-warnings value="true"/>
        <ignore-errors value="true"/>
        <no-step-log value="true"/>
    </report>

</configuration>
-->

<routes xmlns:xsi="http://www.w3.org/2001/XMLSchema-instance" xsi:noNamespaceSchemaLocation="http://sumo.dlr.de/xsd/routes_file.xsd">
    <vehicle id="122" depart="6.10">
        <route edges="1363 1427 1447 -1494 1357 1415 -523 -338 -123 -19 -9 11 728 1029 -1005 -612 608 -614 613 -585 -210 -25 19 123 338 523 -1415 -1357 1494 -1447 -1427 1429 1501 1775 -1771 -1499 1523 1798 -1773 -1501 -1429 -1363 -1323 -1033 -734 -625 -319 -38 -17 -9 11 728 1029 -1005 -612 608 -614 613 -601 -535 569 1391 -1388 -533 -365 -344 -570 -379 -349 -381 -128 -25 19 123 338 523 -1415 -1357 1494 -1447 -1427 1429 1499 1771 -1775 1773 -1798 -1523 -1429 -1363 -1323 -1033 -734 -625 -319 -38 -13 15 117 313 -326 -121 125 344 -349 -210 126 -570 -379 -344 -125 121 326 -313 -117 119 332 592 674 -837 -330 -119 -15 -3 7 679 -696 -11 9 19 123 338 523 -1415 -1357 1494 -1447 1441 1533 1535 -1359 1363 1427 -1373 -1323 -1033 -734 -625 -319 -38 -17 -9 11 728 1029 -1005 -612 608 -614 613 -601 -535 569 1391 -1388 -533 -365 -344 -125 121 326 -313 325 588 -517 -338 -123 -19 -9 11 728 1029 1093 1343 -1199 -1027 -698 696 -679 333 -138 210 -381 -128 -25 19 123 338 523 -1415 -1357 1494 -1447 -1427 1429 1501 1773 -1798 -1523 -1429 -1363 -1323 -1033 -734 -625 -319 -117 119 330 -732 -625 623 730 876 -1535 -1494 -880 882 1323 1373 1431 1524 1533 1535 -876 882 -1033 -734 -625 -319 -38 -17 25 138 -333 679 -696 -11 7 333 -138 126 -570 -379 -344 -125 123 336 361 492 570 -126 -25 17 116 -326 -64 38 319 623 730 876 -1535 -1494 -880 882 1323 1363 1429 1517 1783 -1883 -1526 -1431 -1373 1363 1427 1447 1535 -876 882 1323 1359 -876 -730 -623 639 880 1357 1415 -523 517 -588 -325 319 623 730 876 -1535 -1533 -1524 1526 1883 -1783 -1517 1499 1769 -1517 1501 1773 -1798 -1523 -1429 1427 1447 -1494 1357 1415 -523 -338 -123 -19 -9 3 15 117 -38 -13 15 117 313 -326 -121 125 344 -349 -381 -128 210 585 -613 -579 -383 381 349 365 535 601 -585 -210 -25 19 123 338 523 -1415 -1357 1494 -1447 -1427 1429 1501 1775 -1771 -1499 1523 1798 -1773 1774 1798 -1773 -1501 1523 -1774 -1501 -1429 -1363 -1323 -1033 -734 -625 -319 -38 -13 15 117 313 -116 38 319 639 -730 -623 625 734 1033 -882 880 1357 1415 -523 -338 -123 121 326 -313 325 589 -523 517 -588 -325 319 639 -730 -623 639 880 -1767 -1493 -1425 -1357 1494 -1447 -1427 1429 1517 1783 -1883 -1526 -1431 -1373 -1323 -1033 -734 -625 -319 -38 -13 15 117 313 -116 38 319 639 -730 -623 625 734 1033 -882 880 1357 1415 -589 -325 -117 119 330 -732 -625 -319 -38 -17 25 138 -333 -7 9 19 123 338 523 -1415 -1357 1494 -1447 1441 1533 1535 -1359 1363 1429 1501 1775 -1771 -1499 1523 1798 -1773 1774 1798 -1773 -1501 -1429 1427 1447 1535 -876 -730 -623 639 880 1357 1415 -523 -338 -123 121 326 -313"/>
    </vehicle>
    <vehicle id="302" depart="15.10">
        <route edges="356 -348 -333 -7 9 19 125 344 365 535 601 -585 -210 -25 17 64 -121 -19 -9 11 728 1029 -1005 -612 608 -614 613 -601 -535 569 1391 -1388 -533 -365 -344 -125 121 326 -313 325 588 -517 -338 -123 -19 -9 11 728 1029 -1005 1011 -1342 -1093 -1005 -612 608 -614 613 -585 -210 -25 17 38 325 589 -523 517 -588 -325 319 623 730 876 -1535 -1533 -1524 1526 1883 -1783 -1517 1501 1775 -1771 -1499 1523 -1774 -1501 -1429 -1363 -1323 -1033 -734 -625 -319 -38 -17 25 138 -333 -7 9 19 123 336 361 492 570 -125 123 338 523 -1415 -1357 -1767 -1493 -1425 1415 -523 -338 -123 -19 -9 3 13 -17 25 128 383 577 612 1005 -1029 -728 -11 9 25 138 -333 -7 3 13 -17 -9 11 728 1029 1093 1343 -1199 -1027 -698 728 1029 -1005 1011 -1342 -1093 -1029 870 -679 333 -138 210 349 365 535 601 -585 -210 126 344 -349 -381 -128 210 585 -613 -579 -383 381 349 365 535 601 -585 -210 -25 17 38 319 639 880 1357 1415 -589 -325 -117 119 332 592 674 -837 -330 -119 -15 -3 7 679 -696 -11 9 19 123 338 523 -1415 -1357 1494 -1447 1441 1533 1535 -1359 1363 1427 1447 -1494 1357 1415 -523 -338 -123 -19 17 64 -121 125 344 -349 -381 -128 210 585 -613 614 -608 612 1005 -1029 -728 -11 9 19 125 -126 -25 17 38 325 588 -517 -338 -123 -19 17 64 -121 125 344 -349 -381 383 577 612 1005 -1029 870 -679 333 -138 210 -381 -128 -25 19 123 338 523 -1415 -1357 -1767 -1493 -1425 -1357 1494 -1447 -1427 1429 1499 1771 -1775 1773 -1798 -1523 -1429 1427 1447 -1494 -880 876 -1535 -1533 -1524 1526 1883 -1783 -1769 1771 -1775 1773 -1798 -1523 -1429 -1363 -1323 -1033 -734 -625 -319 -38 -13 15 117 313 -116 -17 -9 11 698 1027 1199 -1343 1342 -1011 1005 -1029 -728 -11 9 19 123 338 523 -1415 -1357 1494 -1447 1441 1533 1535 -1359 1373 1447 -1494 1357 1415 -523 -338 -123 -19 -9 11 698 1027 1199 -1343 1342 -1011 -612 608 -614 613 -585 -210 -25 17 64 -121 -19 -9 11 728 1029 -1005 -612 608 -614 613 -585 349 365 535 601 -585 -210 -25 17 64 -121 -19 17 38 325 588 -517 -338 -123 -19 -9 11 698 1027 1199 -1343 1342 -1011 1005 -1029 870 -679 333 -138 210 585 -613 -579 -383 381 349 365 535 601 -585 -210 -25 17 116 -313 -117 119 332 592 674 -837 -732 -625 623 730 876 -1535 -1533 -1524 1526 1883 -1783 -1769 1771 -1775 1773 -1798 -1523 -1429 1427 1447 1535 -876 -730 -623 639 880 1357 1415 -523 -338 -123 -19 17 64 -121 125 -126 138 -333 -7 3 15 119 330 -732 -625 623 730 876 -1535 -1494 -880 882 -1033 -734 -625 -319 -38 -17 25 138 -333 356 -348 -333 -7 9 19 123 338 523 -1415 -1357 1494 -1447 -1427 1429 1499 1769"/>
    </vehicle>
    <vehicle id="556" depart="27.80">
        <route edges="-1388 -533 -365 -344 -125 123 338 505 -504 -336 338 523 -1415 -1357 -1767 -1493 -1425 1415 -523 -338 -123 -19 -9 11 728 1029 -1005 -612 608 -614 613 -601 -535 569 1391 -1388 -533 -365 -344 -125 121 326 -313 319 623 730 876 -1535 -1494 -880 882 -1033 -734 -625 -319 -38 -17 25 138 348 -356 -7 3 15 117 313 -326 -64 116 -326 -121 -19 17 38 319 623 730 876 -1535 -1533 -1524 1526 1883 -1783 -1517 1501 1773 -1798 -1523 -1429 -1363 -1323 -1033 -734 -625 -319 -38 -13 15 117 313 -326 -121 125 -126 -25 17 38 325 589 -523 517 -588 -325 319 623 730 876 -1535 -1533 -1524 1526 1883 -1783 -1769 1771 -1775 1773 -1798 -1523 -1429 -1363 -1323 -1033 -734 -625 -319 -38 -17 -9 11 728 1029 1093 1342 -1011 1005 -1029 -728 -11 7 679 -696 698 1027 1199 -1343 1342 -1011 1005 -1029 -728 -11 9 19 123 338 523 -1415 -1357 1494 -1447 1441 1533 1535 -876 882 -1033 -734 -625 623 730 876 -1535 -1533 -1524 1526 1883 -1783 -1517 1501 1773 -1798 -1523 -1429 -1363 -1323 -1033 -734 -625 -319 -117 119 330 -732 -625 623 730 880 1357 1415 -589 -325 -117 119 330 -732 -625 -319 -38 -13 15 117 313 -116 38 325 588 -517 -338 -123 -19 17 64 -121 125 -126 138 -333 -7 9 19 125 344 -349 -381 -128 210 585 -613 614 -608 612 1005 -1029 -728 -11 7 679 -696 698 1027 1199 -1343 1342 -1011 -612 608 -614 613 -585 -210 -25 17 38 325 588 -517 505 -504 -336 338 523 -1415 -1357 1494 -1447 1441 1533 1535 -876 882 -1033 -734 -625 -319 -38 -13 15 117 313 -116 38 325 588 -517 505 -504 -336 338 523 -1415 -1357 -1767 -1493 -1425 1415 -523 -338 -123 -19 -9 3 13 -17 25 138 -333 -7 9 19 123 338 523 -1415 -1357 1494 -1447 1431 1524 1533 1535 -876 882 -1033 -734 -625 -319 -38 -17 25 138 -333 679 -696 -11 7 333 -138 210 -381 -128 -25 17 64 -121 -19 -9 11 728 1029 -1005 -612 608 -614 613 -585 -210 -25 17 38 319 623 730 876 -1535 -1533 -1524 1526 1883 -1783 -1517 1501 1773 -1798 -1523 -1429 -1363 -1323 -1033 -734 -625 -319 -38 -13 15 117 313 -326 -121 125 344 -349 -210 126 -570 -379 -349 -381 -128 210 585 -613 -579 -383 381 349 365 535 601 -585 -210 -25 17 64 -121 -19 -9 11 728 1029 -1005 1011 -1342 -1093 -1029 -728 -11 9 19 123 338 523 -1415 -1357 1494 -1533 -1524 1526 1883 -1783 -1769 1771 -1775 1773 -1798 -1523 -1429 1427 1447 -1494 1357 1415 -523 -338 -123 -19 -9 11 728 1029 1093 1343 -1199 -1027 -698 696 -679 333 -138 210 -381 -128 -25 17 38 319 639 880 1357 1415 -523 -338 -123 -19 -9 11 728 1029 1093 1343 -1199 -1027 -698 696 -679 333 -138 210 -381 -128 -25 17 38 325 588 -517 -338 -123 121 326 -313 325 588 -517 505 -504 -336 338 523 -1415"/>
    </vehicle>
    <vehicle id="577" depart="28.85">
        <route edges="1342 -1011 1005 -1029 -728 -11 9 19 123 338 523 -1415 -1357 1494 -1447 -1427 1429 1517 1783 -1883 -1526 -1431 -1427 1429 1501 1775 -1771 -1499 1523 1798 -1773 -1501 -1429 -1363 -1323 -1033 -734 -625 -319 -38 -17 -9 11 728 1029 -1005 -612 608 -614 613 -585 -210 -25 17 38 319 623 730 876 -1535 -1533 -1524 1526 1883 -1783 -1517 1501 1773 -1798 -1523 -1429 -1363 -1323 -1033 -734 -625 -319 -38 -17 25 138 348 -356 -7 3 15 117 -38 -13 15 119 330 -732 -625 623 730 876 -1535 -1533 -1524 1526 1883 -1783 -1517 1501 1775 -1771 -1499 1523 1798 -1773 1774 1798 -1773 -1501 -1429 1427 1447 1535 -876 -730 -623 639 880 -1767 -1493 -1425 1415 -523 -338 -123 -19 17 64 -121 125 -126 138 348 -356 679 -696 698 1027 1199 -1343 1342 -1011 1005 -1029 -728 -11 9 19 123 338 523 -1415 -1357 1494 -1447 -1427 1429 1501 1773 -1798 -1523 -1429 -1363 -1323 -1033 -734 -625 -319 -38 -17 -9 11 728 1029 -1005 1011 -1342 -1093 -1029 -728 -11 9 25 138 -333 -7 3 15 119 332 592 674 -837 -330 -119 -15 -3 7 679 -696 -11 9 19 123 338 523 -1415 -1357 1494 -1447 -1427 1429 1517 1783 -1883 -1526 -1431 -1373 1363 1427 1447 -1494 -880 876 -1535 -1533 -1524 1526 1883 -1783 -1517 1501 1773 -1798 -1523 -1429 -1363 -1323 -1033 -734 -625 -319 -38 -13 15 117 313 -326 -121 -19 17 38 319 623 730 876 -1535 -1494 -880 882 1323 1363 1427 -1373 -1323 -1033 -734 -625 -319 -117 119 332 592 674 -837 -330 -119 -15 -3 7 333 -138 210 -381 -128 -25 17 38 325 589 -523 517 -588 -325 319 623 730 876 -1535 -1494 -880 882 1323 1363 1427 -1373 -1323 -1033 -734 -625 -319 -38 -13 15 117 313 -326 -121 125 344 -349 -210 126 -570 -379 -344 -125 121 326 -313 319 623 730 876 -1535 -1494 -880 882 1323 1363 1427 -1373 -1323 -1033 -734 -625 -319 -38 -13 15 117 313 -116 38 325 588 -517 -338 -123 121 326 -313 -117 119 332 592 674 -837 -330 -119 -15 -3 7 333 -138 210 585 -613 614 -608 -577 -383 381 349 365 535 601 -585 -210 -25 17 38 313 -116 -17 25 138 -333 -7 9 19 123 338 523 -1415 -1357 1494 -1533 -1524 1526 1883 -1783 -1769 1771 -1775 1773 -1798 -1523 -1429 -1363 -1323 -1033 -734 -625 -319 -38 -17 25 138 -333 -7 9 19 125 -126 -25 17 116 -313 -117 119 332 592 674 -837 -732 -625 623 730 876 -1535 -1533 -1524 1526 1883 -1783 -1517 1501 1775 -1771 -1499 1523 -1774 -1501 -1429 -1363 -1323 -1033 -734 -625 -319 -38 -17 -9 11 728 1029 1093 1342 -1011 1005 -1029 -728 -11 9 19 123 338 523 -1415 -1357 1494 -1447 -1427 1429 1501 1775 -1771 -1499 1523 1798 -1773 -1501 -1429 1427 1441 1533 -1447 -1427 1429 1501 1773 -1798 -1523 -1429 -1363 -1323 -1033 -734 -625 -319 -38 -17 25 138 -333 -7 9 19 123 336 361 492 570"/>
    </vehicle>
    <vehicle id="612" depart="30.60">
        <route edges="-1501 -1429 -1363 -1323 -1033 -734 -625 -319 -117 119 332 592 674 -837 -732 -625 -319 -38 -17 25 128 383 577 612 1005 -1029 -728 -11 7 679 -696 698 1027 1199 -1343 1342 -1011 -612 608 -614 613 -585 -210 126 344 -349 -381 383 577 612 1005 -1029 870 -679 333 -138 210 -381 -128 -25 17 38 325 589 -523 517 -588 -325 319 639 880 -1767 -1493 -1425 -1357 1494 -1447 1441 1533 1535 -876 882 -1033 -734 -625 -319 -38 -17 25 138 -333 -7 9 19 125 -126 -25 17 38 319 623 730 876 -1535 -1494 -880 882 1323 1363 1429 1501 1773 -1798 -1523 -1429 -1363 -1323 -1033 -734 -625 -319 -38 -13 15 117 313 -116 38 325 588 -517 -338 -123 121 326 -313 325 589 -523 517 -588 -325 319 623 730 876 -1535 -1533 -1524 1526 1883 -1783 -1769 1771 -1775 1773 -1798 -1523 1517 1783 -1883 -1526 -1431 -1427 1429 1501 1775 -1771 -1499 1523 -1774 -1501 -1429 -1363 -1323 -1033 -734 -625 -319 -38 -17 25 128 383 577 612 1005 -1029 -728 -11 9 25 138 -333 -7 3 15 117 313 -116 38 319 623 730 880 1357 1415 -523 -338 -123 -19 -9 11 728 1029 -1005 -612 608 -614 613 -601 -535 569 1391 -1388 -533 -365 -344 -125 121 326 -313 319 623 730 876 -1535 -1494 -880 882 -1033 -734 -625 -319 -38 -17 25 138 -333 -7 9 19 123 336 361 492 570 -126 -25 17 38 313 -326 -121 125 344 -349 -210 -25 17 38 325 589 -523 517 -588 -325 319 623 730 876 -1535 -1494 -880 882 1323 1359 -876 882 1323 1363 1427 1447 -1494 1357 1415 -523 -338 -123 121 326 -313 325 588 -517 505 -504 -336 338 523 -1415 -1357 -1767 -1493 -1425 1415 -523 -338 -123 -19 17 64 -121 125 344 -349 -381 -128 210 585 -613 614 -608 -577 579 614 -608 612 1005 -1029 -728 -11 9 19 123 338 523 -1415 -1357 1494 -1447 -1427 1429 1499 1769 1783 -1883 -1526 -1431 -1373 -1323 -1033 -734 -625 -319 -38 -13 15 117 313 -326 -121 125 344 -349 -381 -128 210 585 -613 614 -608 612 1005 -1029 -728 -11 9 19 123 338 523 -1415 -1357 1494 -1447 -1427 1429 1501 1775 -1771 -1499 1523 -1774 -1501 -1429 -1363 -1323 -1033 -734 -625 -319 -38 -17 25 128 383 577 612 1005 -1029 870 -679 333 -138 210 -381 -128 -25 17 116 -326 -121 125 344 -349 -381 -128 210 585 -613 614 -608 612 1005 -1029 -728 -11 9 19 123 338 523 -1415 -1357 1494 -1447 -1427 1429 1501 1773 -1798 -1523 -1429 -1363 -1323 -1033 -734 -625 -319 -38 -17 25 138 -333 -7 9 19 123 338 523 -1415 -1357 -1767 -1493 -1425 -1357 1494 -1533 -1524 1526 1883 -1783 -1517 1499 1769 1783 -1883"/>
    </vehicle>
    <vehicle id="690" depart="34.50">
        <route edges="-383 381 349 365 535 601 -585 -210 -25 19 125 -126 138 -333 -7 9 19 125 344 -349 -381 -128 210 585 -613 614 -608 612 1005 -1029 -728 -11 9 19 123 338 523 -1415 -1357 1494 -1447 -1427 1429 1501 1775 -1771 -1499 1523 -1774 -1501 -1429 -1363 -1323 -1033 -734 -625 -319 -117 119 332 592 674 -837 -330 -119 -15 -3 11 728 1029 -1005 -612 608 -614 613 -585 -210 -25 17 64 -121 -19 -9 11 698 1027 1199 -1343 1342 -1011 1005 -1029 -728 -11 9 19 123 338 523 -1415 -1357 -1767 -1493 -1425 1415 -589 -325 319 623 730 876 -1535 -1494 -880 -639 625 734 1033 -882 880 -1767 -1493 -1425 -1357 1494 -1533 -1524 1526 1883 -1783 -1517 1501 1773 -1798 -1523 -1429 1427 1447 -1494 1357 1415 -589 -325 319 639 880 1357 1415 -523 -338 -123 -19 17 116 -326 -64 116 -326 -121 -19 -9 11 698 1027 1199 -1343 1342 -1011 1005 -1029 870 -679 333 -138 210 585 -613 614 -608 612 1005 -1029 870 -679 333 -138 126 -570 -379 -344 -125 121 326 -313 319 623 730 876 -1535 -1494 -880 882 -1033 -734 -625 -319 -38 -13 15 117 313 -326 -121 125 344 -349 -381 -128 210 585 -613 614 -608 612 1005 -1029 870 -679 333 -138 128 383 577 612 1005 -1029 -728 -11 9 19 123 338 523 -1415 -1357 1494 -1447 1431 1524 1533 1535 -876 -730 -623 639 880 -1767 -1493 -1425 1415 -523 -338 -123 -19 17 64 -121 125 -126 -25 17 38 319 623 730 876 -1535 -1494 -880 882 -1033 -734 -625 623 730 880 1357 1415 -589 -325 -117 119 332 592 674 -837 -330 -119 117 313 -326 -121 125 344 -349 -210 -25 17 38 325 589 -523 517 -588 -325 -117 119 332 592 674 -837 -330 -119 -15 -3 7 333 -138 210 585 -613 614 -608 -577 -383 381 349 365 535 601 -585 -210 126 -570 -379 -344 -125 121 326 -313 -117 119 330 -732 -625 -319 -38 -17 25 138 -333 -7 9 19 123 336 361 492 570 -125 121 326 -313 319 639 -730 -623 625 734 1033 -882 880 1357 1415 -523 -338 -123 -19 -9 3 13 -17 25 138 -333 679 -696 -11 9 25 138 -333 -7 3 15 119 332 592 674 -837 -330 -119 -15 -3 11 728 1029 -1005 -612 608 -614 613 -601 -535 569 1391 -1388 -533 -365 -344 -125 121 326 -313 319 623 730 876 -1535 -1494 -880 -639 625 734 1033 -882 880 -1767 -1493 -1425 -1357 -1767 -1493 -1425 1415 -589 -325 -117 119 332 592 674 -837 -330 -119 117 313 -116 38 319 623 730 876 -1535 -1494 -880 882 1323 1363 1429 1517 1783 -1883 -1526 -1431 -1373 1363 1427 1447 -1494 -880"/>
    </vehicle>
    <vehicle id="893" depart="44.65">
        <route edges="-119 -15 -3 11 728 1029 1093 1342 -1011 1005 -1029 -728 -11 9 19 123 338 523 -1415 -1357 1494 -1447 -1427 1429 1517 1783 -1883 -1526 -1431 -1427 1429 1499 1769 1783 -1883 -1526 -1431 -1373 -1323 -1033 -734 -625 -319 -38 -13 15 117 313 -326 -121 125 344 -349 -210 126 -570 -379 -344 -125 123 336 361 492 -379 -349 -210 126 344 365 535 601 -585 -210 -25 19 125 -126 138 -333 679 -696 -11 9 25 138 -333 -7 3 13 -17 -9 11 728 1029 1093 1342 -1011 1005 -1029 -728 -11 9 25 138 -333 -7 3 15 117 313 -326 -64 116 -313 319 623 730 876 -1535 -1533 -1524 1526 1883 -1783 -1517 1501 1773 -1798 -1523 -1429 1427 1447 -1494 1357 1415 -523 -338 -123 -19 -9 11 728 1029 -1005 1011 -1342 -1093 -1029 -728 -11 9 25 138 -333 -7 3 15 117 313 -326 -121 125 344 365 535 601 -585 -210 -25 17 116 -313 -117 119 332 592 674 -837 -732 -625 623 730 876 -1535 -1533 -1524 1526 1883 -1783 -1517 1501 1775 -1771 -1499 1523 -1774 -1501 -1429 -1363 -1323 -1033 -734 -625 -319 -38 -13 15 117 313 -326 -121 125 344 -349 -210 -25 19 123 338 523 -1415 -1357 1494 -1447 -1427 1429 1501 1775 -1771 -1499 1523 1798 -1773 -1501 1517 1783 -1883 -1526 -1431 -1373 -1323 -1033 -734 -625 -319 -38 -17 -9 11 728 1029 1093 1343 -1199 -1027 -698 696 -870 -728 -11 9 19 123 338 523 -1415 -1357 1494 -1533 -1524 1526 1883 -1783 -1517 1501 1773 -1798 -1523 -1429 -1363 -1323 -1033 -734 -625 623 730 880 1357 1415 -523 -338 -123 121 326 -313 325 588 -517 505 -504 -336 338 523 -1415 -1357 -1767 -1493 -1425 1415 -589 -325 -117 119 332 592 674 -837 -330 -119 117 -38 -17 25 138 348 -356 -7 9 19 123 338 523 -1415 -1357 1494 -1447 -1427 1429 1501 1775 -1771 -1499 1523 -1774 -1501 -1429 1427 1431 1524 1533 1535 -876 882 -1033 -734 -625 -319 -38 -17 25 138 -333 -7 9 19 123 336 361 492 570 -126 138 -333 679 -870 -728 696 -679 333 -138 210 349 365 535 601 -585 -210 -25 17 38 319 623 730 876 -1535 -1494 -880 882 -1033 -734 -625 -319 -117 119 332 592 674 -837 -330 -119 117 313 -326 -121 125 344 -349 -210 -25 17 38 319 623 730 876 -1535 -1494 -880 882 1323 1373 1447 -1494 1357 1415 -523 -338 -123 -19 -9 11 728 1029 -1005 1011 -1342 -1093 -1029 870 -679 333 -138 210 585 -613 614 -608 612 1005 -1029 870 -679 333 -138 126 -570 -379 -344 -125 123 338 523 -1415 -1357 1494 -1447 1441 1533 1535 -1359 1373 1447 -1494 -880"/>
    </vehicle>
    <vehicle id="937" depart="46.85">
        <route edges="-1093 -1029 870 -679 333 -138 126 -570 -379 -344 -125 121 326 -313 325 588 -517 -338 -123 -19 -9 11 728 1029 -1005 1011 -1342 -1093 -1029 -728 -11 7 679 -696 -11 9 19 123 338 523 -1415 -1357 1494 -1447 -1427 1429 1517 1783 -1883 -1526 -1431 -1373 1363 1427 1431 1524 1533 1535 -1359 1363 1427 -1373 -1323 -1033 -734 -625 -319 -38 -17 -9 11 728 1029 -1005 -612 608 -614 613 -601 -535 569 1391 -1388 -533 -365 -344 -570 -379 -349 -210 126 344 -349 -210 -25 17 38 319 623 730 876 -1535 -1494 -880 882 -1033 -734 -625 -319 -38 -17 25 138 -333 679 -870 -728 696 -679 333 -138 210 -381 -128 -25 19 123 338 523 -1415 -1357 1494 -1447 -1427 1429 1499 1771 -1775 1773 -1798 -1523 -1429 -1363 -1323 -1033 -734 -625 -319 -38 -17 -9 11 728 1029 1093 1343 -1199 -1027 -698 696 -679 333 -138 210 -381 -128 -25 19 123 338 523 -1415 -1357 1494 -1447 -1427 1429 1501 1775 -1771 -1499 1523 -1774 -1501 -1429 -1363 -1323 -1033 -734 -625 -319 -38 -13 15 117 313 -326 -121 125 344 -349 -210 126 344 -349 -210 -25 17 64 -121 -19 -9 11 728 1029 1093 1342 -1011 1005 -1029 870 -679 333 -138 126 -570 -379 -344 -125 121 326 -313 325 588 -517 -338 -123 -19 17 64 -121 125 344 365 535 601 -585 -210 -25 17 116 -313 -117 119 332 592 674 -837 -330 -119 117 313 -326 -121 125 344 -349 -381 -128 210 585 -613 614 -608 612 1005 -1029 870 -679 333 -138 210 -381 -128 -25 17 38 319 623 730 876 -1535 -1494 1357 1415 -523 -338 -123 -19 17 64 -121 125 -126 -25 19 123 336 361 492 570 -126 -25 17 64 -121 -19 -9 11 728 1029 1093 1343 -1199 -1027 -698 696 -679 333 -138 128 383 577 612 1005 -1029 -728 -11 7 679 -696 698 1027 1199 -1343 1342 -1011 -612 608 -614 613 -585 -210 -25 17 116 -326 -64 -13 15 117 -38 -17 -9 3 15 117 313 -116 38 319 639 -730 -623 639 880 1357 1415 -523 -338 -123 -19 17 64 -121 125 -126 138 -333 356 -348 -333 -7 3 15 119 330 -732 -625 623 730 876 -1535 -1494 -880 882 -1033 -734 -625 -319 -38 -17 25 138 -333 -7 9 19 125 344 -349 -381 -128 210 -381 -128 -25 19 123 338 523 -1415 -1357 1494 -1447 1431 1524 -1441 1431 1524 1533 1535 -876 882 -1033 -734 -625 -319 -38 -13 15 117 313 -326 -121 125 -126 -25 17 38 319 623 730 876 -1535 -1494 -880 882 1323 1363 1427 -1373 -1323 -1033 -734 -625 623 730 876 -1535 -1494 -880 882 1323 1363 1429 1501 1775 -1771 -1499 1523 1798 -1773 1774"/>
    </vehicle>
    <vehicle id="964" depart="48.20">
        <route edges="-612 608 -614 613 -585 -210 -25 17 38 313 -116 38 319 639 880 -1767 -1493 -1425 -1357 1494 -1447 1441 1533 1535 -876 882 -1033 -734 -625 -319 -38 -17 25 128 383 577 612 1005 -1029 870 -679 333 -138 210 -381 -128 -25 19 123 338 523 -1415 -1357 1494 -1447 -1427 1429 1501 1773 -1798 -1523 -1429 -1363 -1323 -1033 -734 -625 -319 -38 -13 15 117 313 -326 -121 125 344 -349 -210 126 -570 -379 -344 -125 123 338 523 -1415 -1357 -1767 -1493 -1425 1415 -523 -338 -123 -19 17 64 -121 125 -126 138 -333 -7 9 19 123 336 361 492 570 -125 121 326 -313 319 623 730 876 -1535 -1494 -880 882 -1033 -734 -625 -319 -38 -17 25 138 -333 -7 9 19 123 338 523 -1415 -1357 1494 -1533 -1524 1526 1883 -1783 -1517 1501 1773 -1798 -1523 -1429 -1363 -1323 -1033 -734 -625 -319 -38 -17 25 138 -333 -7 9 19 123 336 361 492 570 -125 123 338 523 -1415 -1357 1494 -1447 -1427 1429 1501 1775 -1771 1769 1783 -1883 -1526 1524 1533 1535 -876 -639 625 734 1033 -882 -730 -623 639 880 1357 1415 -523 -338 -123 -19 -9 3 13 -17 25 128 383 577 612 1005 -1029 -728 -11 9 19 123 338 523 -1415 -1357 1494 -1447 -1427 1429 1501 1773 -1798 -1523 -1429 -1363 -1323 -1033 -734 -625 -319 -38 -17 25 138 -333 679 -696 -11 9 19 123 338 523 -1415 -1357 1494 -1447 -1427 1429 1501 1775 -1771 -1499 1523 -1774 -1501 -1429 -1363 -1323 -1033 -734 -625 -319 -38 -17 -9 11 728 1029 -1005 1011 -1342 -1093 -1005 -612 608 -614 613 -585 -210 -25 17 38 319 639 880 1357 1415 -523 -338 -123 -19 17 64 -121 125 344 -349 -210 126 -570 -379 -344 -125 121 326 -313 325 588 -517 -338 -123 -19 -9 11 728 1029 -1005 -612 608 -614 613 -601 -535 569 1391 -1388 -533 -365 -344 -125 121 326 -313 325 588 -517 -338 -123 -19 -9 11 728 1029 -1005 1011 -1342 -1093 -1029 -728 -11 9 25 138 348 -356 -7 9 19 125 -126 -25 19 125 -126 138 -333 679 -696 -11 7 333 -138 128 383 577 612 1005 -1029 870 -679 333 -138 210 -381 -128 -25 17 38 319 623 730 876 -1535 -1494 -880 882 1323 1373 1447 -1494 -880 882 -1033 -734 -625 -319 -38 -17 25 138 -333 679 -696 -11 7 333 -138 210 -381 -128 -25 17 38 325 589 -523 517 -588 -325 319 623 730 876 -1535 -1533 -1524 1526 1883 -1783 -1517 1501 1775 -1771 -1499 1523 -1774 -1501 -1429 -1363 -1323 -1033 -734 -625 -319 -38 -13 15 117 313 -326 -121 125 -126 -25 19 123 338 523 -1415 -1357 -1767 -1493 -1425 1415 -523 -338 -123 121 326 -313 -117"/>
    </vehicle>
    <vehicle id="1079" depart="53.95">
        <route edges="1767 -880 882 1323 1359 -876 882 -1033 -734 -625 -319 -38 -17 25 138 -333 679 -870 -728 -11 9 19 125 -126 -25 17 38 319 639 -730 -623 625 734 1033 -882 880 -1767 -1493 -1425 -1357 1494 -1447 1441 1533 1535 -1359 1373 1447 -1494 1357 1415 -523 -338 -123 -19 17 64 -121 125 -126 -25 19 123 336 361 492 570 -126 138 -333 679 -696 698 1027 1199 -1343 1342 -1011 -612 608 -614 613 -585 -210 -25 17 38 319 623 730 880 1357 1415 -589 -325 319 623 730 876 -1535 -1533 -1524 1526 1883 -1783 -1517 1501 1775 -1771 -1499 1523 -1774 -1501 -1429 -1363 -1323 -1033 -734 -625 -319 -38 -17 -9 11 728 1029 1093 1343 -1199 -1027 -698 696 -870 -728 -11 9 19 123 338 523 -1415 -1357 1494 -1447 1441 1533 1535 -1359 1363 1427 -1373 1363 1429 1501 1773 -1798 -1523 -1429 1427 1447 1535 -876 882 1323 1359 -876 882 -1033 -734 -625 -319 -38 -13 15 117 313 -326 -121 125 344 -349 -381 -128 210 585 -613 -579 -383 381 349 365 535 601 -585 -210 126 344 -349 -381 383 577 612 1005 -1029 870 -679 333 -138 210 -381 -128 126 344 -349 -210 -25 17 38 319 623 730 876 -1535 -1494 -880 882 -1033 -734 -625 -319 -38 -17 -9 11 728 1029 -1005 1011 -1342 -1093 -1029 -728 -11 9 25 138 -333 -7 3 15 117 -38 -13 15 117 313 -326 -121 125 344 -349 -381 -128 210 585 -613 -579 -383 381 349 365 535 601 -585 -210 -25 17 38 319 623 730 880 1357 1415 -523 -338 -123 -19 17 64 -121 125 344 -349 -381 -128 -25 17 116 -326 -64 38 319 623 730 876 -1535 -1533 -1524 1526 1883 -1783 -1517 1501 1775 -1771 -1499 1523 -1774 -1501 -1429 -1363 -1323 -1033 -734 -625 -319 -38 -13 15 117 313 -326 -121 125 344 -349 -210 -25 19 123 338 523 -1415 -1357 1494 -1447 -1427 1429 1501 1773 -1798 -1523 1499 1769 1783 -1883 -1526 -1431 -1373 -1323 -1033 -734 -625 -319 -38 -17 -9 11 728 1029 -1005 1011 -1342 -1093 -1029 -728 -11 9 25 138 -333 -7 3 15 119 330 -732 -625 623 730 880 1357 1415 -523 -338 -123 -19 -9 11 728 1029 -1005 -612 608 -614 613 -585 -210 -25 17 38 319 639 880 1357 1415 -589 -325 319 639 880 1357 1415 -523 -338 -123 -19 17 64 -121 125 -126 -25 19 123 338 523 -1415 -1357 1494 -1447 -1427 1429 1501 1775 -1771 -1499 1523 -1774"/>
    </vehicle>
    <vehicle id="1104" depart="55.20">
        <route edges="19 125 -126 138 -333 -7 9 25 138 -333 -7 9 25 138 -333 -7 3 15 119 330 -732 -625 -319 -117 119 330 -732 -625 623 730 876 -1535 -1494 1357 1415 -589 -325 319 623 730 876 -1535 -1533 -1524 1526 1883 -1783 -1517 1501 1773 -1798 -1523 -1429 -1363 -1323 -1033 -734 -625 -319 -38 -13 15 117 313 -326 -121 125 344 -349 -381 -128 -25 17 116 -313 -117 119 330 -732 -625 -319 -38 -17 25 138 -333 356 -348 -333 -7 9 19 123 338 523 -1415 -1357 1494 -1447 -1427 1429 1501 1775 -1771 -1499 1523 -1774 -1501 -1429 -1363 -1323 -1033 -734 -625 -319 -38 -13 15 117 313 -326 -121 125 344 365 535 601 -585 -210 -25 17 38 319 623 730 876 -1535 -1533 -1524 1526 1883 -1783 -1517 1501 1773 -1798 -1523 -1429 1427 1447 -1494 1357 1415 -523 -338 -123 121 326 -313 325 588 -517 505 -504 -336 338 523 -1415 -1357 1494 -1447 -1427 1429 1501 1773 -1798 -1523 -1429 -1363 -1323 -1033 -734 -625 -319 -38 -17 25 138 -333 356 -348 -333 -7 9 19 123 338 523 -1415 -1357 1494 -1447 1431 1524 -1441 1431 1524 1533 1535 -876 -730 -623 639 880 1357 1415 -523 -338 -123 -19 17 64 -121 125 344 -349 -381 -128 210 585 -613 614 -608 -577 579 614 -608 612 1005 -1029 -728 -11 9 25 138 -333 -7 9 19 123 338 523 -1415 -1357 -1767 -1493 -1425 1415 -523 -338 -123 -19 -9 11 728 1029 1093 1343 -1199 -1027 -698 696 -679 333 -138 210 -381 -128 -25 17 38 319 623 730 876 -1535 -1494 -880 882 1323 1373 1447 -1494 1357 1415 -523 -338 -123 -19 -9 11 728 1029 -1005 -612 608 -614 613 -601 -535 569 1391 -1388 -533 -365 -344 -570 -379 -349 -381 383 577 612 1005 -1029 870 -679 333 -138 210 -381 -128 -25 17 38 325 588 -517 -338 -123 121 326 -313 319 639 880 -1767 -1493 -1425 -1357 1494 -1447 1431 1524 1533 1535 -876 882 -1033 -734 -625 -319 -38 -17 -9 11 728 1029 -1005 -612 608 -614 613 -601 -535 569 1391 -1388 -533 -365 -344 -570 -379 -349 -210 -25 17 38 319 623 730 876 -1535 -1494 -880 882 -1033 -734 -625 -319 -38 -17 25 138 -333 -7 9 19 123 338 523 -1415 -1357 1494 -1447 -1427 1429 1517 1783 -1883 -1526 -1431 -1373 -1323 -1033 -734 -625 -319 -38 -13 15 117 313 -326 -121 125 -126 -25 17 38 319 623 730 876 -1535 -1494 -880 882 -1033 -734 -625 -319 -38 -17 25 138 -333 -7 9 19 123 338 523 -1415 -1357 1494 -1447 -1427 1429 1517 1783 -1883 -1526 -1431 -1373 -1323 -1033 -734 -625 -319 -38 -17 -9 11 728 1029 -1005 -612 608 -614 613 -585 -210 -25 19 123 338 523 -1415 -1357 1494 -1447 -1427 1429 1501 1773 -1798 -1523 -1429 -1363 -1323 -1033 -734 -625 -319 -38 -17 -9 11 728 1029 -1005"/>
    </vehicle>
    <vehicle id="1300" depart="65.00">