<?xml version="1.0" encoding="UTF-8"?>

<!-- generated on 2024-01-19 10:30:53 by Eclipse SUMO netedit Version 1.18.0
<configuration xmlns:xsi="http://www.w3.org/2001/XMLSchema-instance" xsi:noNamespaceSchemaLocation="http://sumo.dlr.de/xsd/neteditConfiguration.xsd">

    <input>
        <sumo-net-file value="C:\D\SUMO\PriorityLane\sumo_config\Test.net.xml"/>
    </input>

    <output>
        <output-file value="C:\D\SUMO\PriorityLane\sumo_config\Test.net.xml"/>
    </output>

    <processing>
        <geometry.min-radius.fix.railways value="false"/>
        <geometry.max-grade.fix value="false"/>
        <offset.disable-normalization value="true"/>
        <lefthand value="0"/>
    </processing>

    <junctions>
        <no-turnarounds value="true"/>
        <junctions.corner-detail value="5"/>
        <junctions.limit-turn-speed value="5.50"/>
        <rectangular-lane-cut value="0"/>
    </junctions>

    <pedestrian>
        <walkingareas value="0"/>
    </pedestrian>

</configuration>
-->

<net version="1.16" junctionCornerDetail="5" limitTurnSpeed="5.50" xmlns:xsi="http://www.w3.org/2001/XMLSchema-instance" xsi:noNamespaceSchemaLocation="http://sumo.dlr.de/xsd/net_file.xsd">

    <location netOffset="230.76,565.34" convBoundary="0.00,0.00,751.66,878.95" origBoundary="-230.76,-565.34,520.90,313.61" projParameter="!"/>

    <edge id=":1_0" function="internal">
        <lane id=":1_0_0" index="0" speed="5.98" length="9.08" width="3.20" shape="223.03,582.28 222.62,579.71 221.49,578.14 219.64,577.55 217.07,577.97"/>
    </edge>
    <edge id=":1_1" function="internal">
        <lane id=":1_1_0" index="0" speed="13.89" length="28.69" width="3.20" shape="223.03,582.28 222.91,573.98 222.62,568.28 221.77,562.66 219.95,554.57"/>
        <lane id=":1_1_1" index="1" speed="13.89" length="28.69" width="3.20" shape="226.22,582.23 226.10,573.72 225.81,567.88 224.93,562.12 223.06,553.83"/>
        <lane id=":1_1_2" index="2" speed="13.89" length="28.69" width="3.20" shape="229.42,582.18 229.30,573.46 228.99,567.48 228.09,561.57 226.17,553.08"/>
    </edge>
    <edge id=":1_4" function="internal">
        <lane id=":1_4_0" index="0" speed="10.70" length="5.86" width="3.20" shape="229.42,582.18 230.05,576.36"/>
    </edge>
    <edge id=":1_5" function="internal">
        <lane id=":1_5_0" index="0" speed="3.65" length="1.44" width="3.20" shape="229.42,582.18 230.21,580.97"/>
    </edge>
    <edge id=":1_24" function="internal">
        <lane id=":1_24_0" index="0" speed="10.70" length="21.44" width="3.20" shape="230.05,576.36 230.28,574.12 233.16,568.45 238.04,565.17 244.94,564.28"/>
    </edge>
    <edge id=":1_25" function="internal">
        <lane id=":1_25_0" index="0" speed="3.65" length="3.23" width="3.20" shape="230.21,580.97 231.00,580.56 231.81,580.94 232.62,582.13"/>
    </edge>
    <edge id=":1_6" function="internal">
        <lane id=":1_6_0" index="0" speed="7.06" length="11.26" width="3.20" shape="244.58,573.87 242.10,574.30 240.35,575.80 239.32,578.38 239.02,582.03"/>
    </edge>
    <edge id=":1_7" function="internal">
        <lane id=":1_7_0" index="0" speed="13.89" length="29.14" width="3.20" shape="244.58,573.87 236.28,573.71 230.59,574.17 225.01,575.51 217.07,577.97"/>
        <lane id=":1_7_1" index="1" speed="13.89" length="29.14" width="3.20" shape="244.70,570.67 236.08,570.50 230.17,570.98 224.38,572.36 216.12,574.91"/>
        <lane id=":1_7_2" index="2" speed="13.89" length="29.14" width="3.20" shape="244.82,567.47 235.88,567.29 229.75,567.79 223.74,569.22 215.17,571.85"/>
    </edge>
    <edge id=":1_10" function="internal">
        <lane id=":1_10_0" index="0" speed="11.83" length="4.98" width="3.20" shape="244.82,567.47 239.90,566.68"/>
    </edge>
    <edge id=":1_11" function="internal">
        <lane id=":1_11_0" index="0" speed="3.65" length="1.44" width="3.20" shape="244.82,567.47 243.65,566.63"/>
    </edge>
    <edge id=":1_26" function="internal">
        <lane id=":1_26_0" index="0" speed="11.83" length="20.55" width="3.20" shape="239.90,566.68 237.90,566.36 232.49,563.58 228.58,559.16 226.17,553.08"/>
    </edge>
    <edge id=":1_27" function="internal">
        <lane id=":1_27_0" index="0" speed="3.65" length="3.23" width="3.20" shape="243.65,566.63 243.28,565.82 243.71,565.03 244.94,564.28"/>
    </edge>
    <edge id=":1_12" function="internal">
        <lane id=":1_12_0" index="0" speed="8.56" length="12.96" width="3.20" shape="235.51,550.84 236.72,553.80 238.73,555.97 241.56,557.33 245.18,557.88"/>
    </edge>
    <edge id=":1_13" function="internal">
        <lane id=":1_13_0" index="0" speed="13.89" length="30.80" width="3.20" shape="235.51,550.84 237.50,559.76 238.49,566.28 238.87,572.88 239.02,582.03"/>
        <lane id=":1_13_1" index="1" speed="13.89" length="30.80" width="3.20" shape="232.39,551.59 234.37,560.39 235.33,566.68 235.68,573.04 235.82,582.08"/>
        <lane id=":1_13_2" index="2" speed="13.89" length="30.80" width="3.20" shape="229.28,552.33 231.25,561.03 232.18,567.08 232.49,573.20 232.62,582.13"/>
    </edge>
    <edge id=":1_16" function="internal">
        <lane id=":1_16_0" index="0" speed="11.13" length="4.39" width="3.20" shape="229.28,552.33 229.54,556.72"/>
    </edge>
    <edge id=":1_17" function="internal">
        <lane id=":1_17_0" index="0" speed="3.65" length="1.44" width="3.20" shape="229.28,552.33 228.78,553.69"/>
    </edge>
    <edge id=":1_28" function="internal">
        <lane id=":1_28_0" index="0" speed="11.13" length="22.60" width="3.20" shape="229.54,556.72 229.67,558.84 227.45,564.26 222.61,568.60 215.17,571.85"/>
    </edge>
    <edge id=":1_29" function="internal">
        <lane id=":1_29_0" index="0" speed="3.65" length="3.23" width="3.20" shape="228.78,553.69 228.10,554.26 227.23,554.06 226.17,553.08"/>
    </edge>
    <edge id=":1_18" function="internal">
        <lane id=":1_18_0" index="0" speed="7.67" length="12.31" width="3.20" shape="212.33,562.68 216.14,561.14 218.68,559.27 219.95,557.09 219.95,554.57"/>
    </edge>
    <edge id=":1_19" function="internal">
        <lane id=":1_19_0" index="0" speed="13.89" length="32.38" width="3.20" shape="212.33,562.68 221.40,559.98 228.51,558.40 235.74,557.77 245.18,557.88"/>
        <lane id=":1_19_1" index="1" speed="13.89" length="32.38" width="3.20" shape="213.27,565.74 222.18,563.06 228.92,561.53 235.79,560.94 245.06,561.08"/>
        <lane id=":1_19_2" index="2" speed="13.89" length="32.38" width="3.20" shape="214.22,568.80 222.96,566.13 229.33,564.66 235.83,564.12 244.94,564.28"/>
    </edge>
    <edge id=":1_22" function="internal">
        <lane id=":1_22_0" index="0" speed="10.06" length="5.09" width="3.20" shape="214.22,568.80 219.25,567.99"/>
    </edge>
    <edge id=":1_23" function="internal">
        <lane id=":1_23_0" index="0" speed="3.65" length="1.44" width="3.20" shape="214.22,568.80 215.61,569.20"/>
    </edge>
    <edge id=":1_30" function="internal">
        <lane id=":1_30_0" index="0" speed="10.06" length="22.97" width="3.20" shape="219.25,567.99 222.16,567.52 227.87,569.32 231.36,574.19 232.62,582.13"/>
    </edge>
    <edge id=":1_31" function="internal">
        <lane id=":1_31_0" index="0" speed="3.65" length="3.23" width="3.20" shape="215.61,569.20 216.23,569.85 216.08,570.73 215.17,571.85"/>
    </edge>
    <edge id=":10_0" function="internal">
        <lane id=":10_0_0" index="0" speed="3.65" length="4.67" width="3.20" shape="68.94,617.23 67.56,616.82 66.94,616.17 67.09,615.29 68.00,614.17"/>
    </edge>
    <edge id=":115_0" function="internal">
        <lane id=":115_0_0" index="0" speed="11.10" length="36.31" width="3.20" shape="388.09,238.00 397.69,241.80 402.78,247.76 403.23,255.58 398.92,264.96"/>
        <lane id=":115_0_1" index="1" speed="10.08" length="29.71" width="3.20" shape="387.40,241.13 395.26,244.24 399.42,249.11 399.78,255.51 396.26,263.18"/>
        <lane id=":115_0_2" index="2" speed="9.03" length="23.55" width="3.20" shape="386.71,244.25 393.13,246.65 396.42,250.31 396.58,255.23 393.60,261.41"/>
    </edge>
    <edge id=":115_3" function="internal">
        <lane id=":115_3_0" index="0" speed="3.93" length="3.36" width="3.20" shape="385.62,256.08 386.04,255.19 386.02,254.49 385.55,253.97 384.63,253.63"/>
        <lane id=":115_3_1" index="1" speed="6.12" length="10.09" width="3.20" shape="388.28,257.85 389.55,255.21 389.49,253.10 388.08,251.53 385.33,250.50"/>
        <lane id=":115_3_2" index="2" speed="7.71" length="16.82" width="3.20" shape="390.94,259.63 393.07,255.22 392.96,251.70 390.61,249.09 386.02,247.38"/>
    </edge>
    <edge id=":118_0" function="internal">
        <lane id=":118_0_0" index="0" speed="3.65" length="4.67" width="3.20" shape="0.53,244.63 -0.87,244.27 -1.51,243.65 -1.40,242.76 -0.53,241.61"/>
    </edge>
    <edge id=":12_0" function="internal">
        <lane id=":12_0_0" index="0" speed="13.89" length="40.48" width="3.20" shape="311.53,410.64 304.62,402.75 297.11,396.70 288.65,391.86 278.94,387.62"/>
    </edge>
    <edge id=":12_1" function="internal">
        <lane id=":12_1_0" index="0" speed="13.89" length="47.00" width="3.20" shape="311.53,410.64 305.03,400.94 299.04,390.28 293.72,379.24 289.22,368.44"/>
        <lane id=":12_1_1" index="1" speed="13.89" length="47.00" width="3.20" shape="314.10,408.74 307.66,399.15 301.82,388.75 296.64,377.98 292.21,367.29"/>
        <lane id=":12_1_2" index="2" speed="13.89" length="47.00" width="3.20" shape="316.67,406.83 310.30,397.36 304.60,387.22 299.56,376.71 295.20,366.14"/>
    </edge>
    <edge id=":12_4" function="internal">
        <lane id=":12_4_0" index="0" speed="13.89" length="8.05" width="3.20" shape="316.67,406.83 312.76,399.79"/>
    </edge>
    <edge id=":12_5" function="internal">
        <lane id=":12_5_0" index="0" speed="10.37" length="3.82" width="3.20" shape="316.67,406.83 315.16,403.32"/>
    </edge>
    <edge id=":12_6" function="internal">
        <lane id=":12_6_0" index="0" speed="3.65" length="1.44" width="3.20" shape="316.67,406.83 316.59,405.39"/>
    </edge>
    <edge id=":12_34" function="internal">
        <lane id=":12_34_0" index="0" speed="13.89" length="35.96" width="3.20" shape="312.76,399.79 311.14,396.86 309.22,386.71 310.91,376.36 316.21,365.82"/>
    </edge>
    <edge id=":12_35" function="internal">
        <lane id=":12_35_0" index="0" speed="10.37" length="29.99" width="3.20" shape="315.16,403.32 313.15,398.63 315.09,392.01 321.42,387.20 331.08,384.47"/>
    </edge>
    <edge id=":12_36" function="internal">
        <lane id=":12_36_0" index="0" speed="3.65" length="3.23" width="3.20" shape="316.59,405.39 317.00,404.59 317.88,404.43 319.24,404.92"/>
    </edge>
    <edge id=":12_7" function="internal">
        <lane id=":12_7_0" index="0" speed="6.74" length="13.46" width="3.20" shape="332.48,393.97 327.44,395.08 324.41,396.64 323.39,398.65 324.37,401.10"/>
    </edge>
    <edge id=":12_8" function="internal">
        <lane id=":12_8_0" index="0" speed="13.89" length="52.68" width="3.20" shape="332.48,393.97 319.81,394.68 305.37,393.69 291.10,391.26 278.94,387.62"/>
        <lane id=":12_8_1" index="1" speed="13.89" length="52.68" width="3.20" shape="332.01,390.80 319.60,391.54 305.73,390.62 292.02,388.25 280.12,384.65"/>
        <lane id=":12_8_2" index="2" speed="13.89" length="52.68" width="3.20" shape="331.55,387.64 319.40,388.40 306.09,387.55 292.95,385.25 281.31,381.67"/>
    </edge>
    <edge id=":12_11" function="internal">
        <lane id=":12_11_0" index="0" speed="13.89" length="14.88" width="3.20" shape="331.55,387.64 317.90,388.01 316.72,387.66"/>
    </edge>
    <edge id=":12_12" function="internal">
        <lane id=":12_12_0" index="0" speed="9.39" length="4.44" width="3.20" shape="331.55,387.64 327.13,387.23"/>
    </edge>
    <edge id=":12_13" function="internal">
        <lane id=":12_13_0" index="0" speed="3.65" length="1.44" width="3.20" shape="331.55,387.64 330.24,387.02"/>
    </edge>
    <edge id=":12_37" function="internal">
        <lane id=":12_37_0" index="0" speed="13.89" length="33.50" width="3.20" shape="316.72,387.66 306.79,384.74 298.23,377.83 292.21,367.29"/>
    </edge>
    <edge id=":12_38" function="internal">
        <lane id=":12_38_0" index="0" speed="9.39" length="26.70" width="3.20" shape="327.13,387.23 323.04,386.85 317.58,382.44 315.93,375.62 318.87,367.59"/>
    </edge>
    <edge id=":12_39" function="internal">
        <lane id=":12_39_0" index="0" speed="3.65" length="3.23" width="3.20" shape="330.24,387.02 329.73,386.29 330.01,385.44 331.08,384.47"/>
    </edge>
    <edge id=":12_14" function="internal">
        <lane id=":12_14_0" index="0" speed="5.50" length="9.60" width="3.20" shape="326.86,372.92 325.48,375.62 325.57,377.39 327.13,378.23 330.15,378.14"/>
    </edge>
    <edge id=":12_15" function="internal">
        <lane id=":12_15_0" index="0" speed="13.75" length="32.42" width="3.20" shape="326.86,372.92 321.68,382.09 319.11,390.16 319.15,397.13 321.81,403.01"/>
        <lane id=":12_15_1" index="1" speed="13.89" length="36.35" width="3.20" shape="324.19,371.15 318.55,381.25 315.84,390.24 316.07,398.13 319.24,404.92"/>
    </edge>
    <edge id=":12_17" function="internal">
        <lane id=":12_17_0" index="0" speed="13.89" length="48.30" width="3.20" shape="321.53,369.37 312.66,379.73 302.81,385.73 291.96,387.37 280.12,384.65"/>
    </edge>
    <edge id=":12_18" function="internal">
        <lane id=":12_18_0" index="0" speed="10.12" length="34.30" width="3.20" shape="321.53,369.37 314.71,375.97 307.28,377.51 300.39,374.17 295.20,366.14"/>
    </edge>
    <edge id=":12_19" function="internal">
        <lane id=":12_19_0" index="0" speed="3.65" length="2.34" width="3.20" shape="321.53,369.37 320.20,369.92 319.31,369.81"/>
    </edge>
    <edge id=":12_40" function="internal">
        <lane id=":12_40_0" index="0" speed="3.65" length="2.34" width="3.20" shape="319.31,369.81 318.87,369.03 318.87,367.59"/>
    </edge>
    <edge id=":12_20" function="internal">
        <lane id=":12_20_0" index="0" speed="6.58" length="13.61" width="3.20" shape="304.16,362.70 306.15,366.45 308.38,367.92 310.85,367.12 313.55,364.04"/>
    </edge>
    <edge id=":12_21" function="internal">
        <lane id=":12_21_0" index="0" speed="13.52" length="35.29" width="3.20" shape="304.16,362.70 308.88,371.84 314.86,377.99 322.11,381.15 330.62,381.31"/>
    </edge>
    <edge id=":12_22" function="internal">
        <lane id=":12_22_0" index="0" speed="13.89" length="44.40" width="3.20" shape="304.16,362.70 308.33,372.91 312.93,382.63 318.20,391.99 324.37,401.10"/>
        <lane id=":12_22_1" index="1" speed="13.89" length="44.40" width="3.20" shape="301.17,363.84 305.41,374.18 310.15,384.16 315.56,393.78 321.81,403.01"/>
        <lane id=":12_22_2" index="2" speed="13.89" length="44.40" width="3.20" shape="298.18,364.99 302.48,375.44 307.37,385.69 312.93,395.57 319.24,404.92"/>
    </edge>
    <edge id=":12_25" function="internal">
        <lane id=":12_25_0" index="0" speed="9.38" length="2.79" width="3.20" shape="298.18,364.99 298.53,367.76"/>
    </edge>
    <edge id=":12_26" function="internal">
        <lane id=":12_26_0" index="0" speed="3.65" length="1.44" width="3.20" shape="298.18,364.99 297.87,366.40"/>
    </edge>
    <edge id=":12_41" function="internal">
        <lane id=":12_41_0" index="0" speed="9.38" length="28.40" width="3.20" shape="298.53,367.76 299.26,373.47 296.11,379.77 289.78,382.85 281.31,381.67"/>
    </edge>
    <edge id=":12_42" function="internal">
        <lane id=":12_42_0" index="0" speed="3.65" length="3.23" width="3.20" shape="297.87,366.40 297.26,367.06 296.37,366.97 295.20,366.14"/>
    </edge>
    <edge id=":12_27" function="internal">
        <lane id=":12_27_0" index="0" speed="5.49" length="9.62" width="3.20" shape="284.85,372.75 287.79,373.54 289.50,373.09 289.98,371.39 289.22,368.44"/>
    </edge>
    <edge id=":12_28" function="internal">
        <lane id=":12_28_0" index="0" speed="13.42" length="35.09" width="3.20" shape="284.85,372.75 294.73,375.47 303.25,375.22 310.41,372.00 316.21,365.82"/>
    </edge>
    <edge id=":12_29" function="internal">
        <lane id=":12_29_0" index="0" speed="13.89" length="46.09" width="3.20" shape="284.85,372.75 295.73,376.24 307.17,378.34 318.78,379.00 330.15,378.14"/>
        <lane id=":12_29_1" index="1" speed="13.89" length="47.74" width="3.20" shape="283.67,375.73 294.80,379.24 306.81,381.41 318.98,382.13 330.62,381.31"/>
        <lane id=":12_29_2" index="2" speed="13.89" length="49.38" width="3.20" shape="282.49,378.70 293.87,382.25 306.45,384.48 319.19,385.27 331.08,384.47"/>
    </edge>
    <edge id=":12_32" function="internal">
        <lane id=":12_32_0" index="0" speed="13.89" length="45.67" width="3.20" shape="282.49,378.70 292.85,383.44 302.74,389.37 311.68,396.52 319.24,404.92"/>
    </edge>
    <edge id=":12_33" function="internal">
        <lane id=":12_33_0" index="0" speed="3.65" length="1.44" width="3.20" shape="282.49,378.70 283.31,379.89"/>
    </edge>
    <edge id=":12_43" function="internal">
        <lane id=":12_43_0" index="0" speed="3.65" length="3.23" width="3.20" shape="283.31,379.89 283.38,380.78 282.72,381.37 281.31,381.67"/>
    </edge>
    <edge id=":122_0" function="internal">
        <lane id=":122_0_0" index="0" speed="3.65" length="4.67" width="3.20" shape="671.25,353.11 672.40,352.23 673.28,352.10 673.91,352.74 674.29,354.13"/>
    </edge>
    <edge id=":124_0" function="internal">
        <lane id=":124_0_0" index="0" speed="11.19" length="33.40" width="3.20" shape="749.32,622.22 754.99,630.01 756.29,636.96 753.20,643.32 745.68,649.34"/>
        <lane id=":124_0_1" index="1" speed="10.10" length="26.98" width="3.20" shape="747.00,624.42 751.40,630.66 752.37,636.43 749.91,641.75 744.02,646.61"/>
        <lane id=":124_0_2" index="2" speed="8.96" length="20.99" width="3.20" shape="744.67,626.62 748.09,631.47 748.85,635.96 746.94,640.10 742.36,643.88"/>
    </edge>
    <edge id=":124_3" function="internal">
        <lane id=":124_3_0" index="0" speed="3.91" length="3.00" width="3.20" shape="737.36,635.68 738.02,635.14 738.29,634.55 738.18,633.90 737.70,633.21"/>
        <lane id=":124_3_1" index="1" speed="6.08" length="8.99" width="3.20" shape="739.03,638.41 740.99,636.79 741.81,635.02 741.49,633.09 740.02,631.01"/>
        <lane id=":124_3_2" index="2" speed="7.66" length="14.99" width="3.20" shape="740.69,641.14 743.96,638.44 745.33,635.49 744.79,632.28 742.35,628.81"/>
    </edge>
    <edge id=":127_0" function="internal">
        <lane id=":127_0_0" index="0" speed="3.65" length="4.67" width="3.20" shape="577.24,867.09 576.63,868.40 575.90,868.91 575.05,868.64 574.08,867.57"/>
    </edge>
    <edge id=":137_0" function="internal">
        <lane id=":137_0_0" index="0" speed="3.65" length="4.67" width="3.20" shape="379.55,880.26 378.11,880.29 377.33,879.86 377.20,878.98 377.73,877.64"/>
    </edge>
    <edge id=":14_0" function="internal">
        <lane id=":14_0_0" index="0" speed="8.60" length="15.54" width="3.20" shape="117.01,224.30 114.41,219.27 111.81,215.94 109.22,214.30 106.64,214.36"/>
        <lane id=":14_0_1" index="1" speed="9.76" length="20.29" width="3.20" shape="119.93,223.00 116.64,216.86 113.15,212.87 109.46,211.03 105.58,211.34"/>
    </edge>
    <edge id=":14_2" function="internal">
        <lane id=":14_2_0" index="0" speed="10.27" length="33.30" width="3.20" shape="122.86,221.71 120.50,212.46 122.14,205.16 127.59,200.58 136.69,199.50"/>
        <lane id=":14_2_1" index="1" speed="9.73" length="29.73" width="3.20" shape="122.86,221.71 120.94,213.58 122.82,207.34 128.10,203.53 136.42,202.69"/>
    </edge>
    <edge id=":14_4" function="internal">
        <lane id=":14_4_0" index="0" speed="3.65" length="2.34" width="3.20" shape="122.86,221.71 123.11,220.29 123.68,219.60"/>
    </edge>
    <edge id=":14_16" function="internal">
        <lane id=":14_16_0" index="0" speed="3.65" length="2.34" width="3.20" shape="123.68,219.60 124.57,219.64 125.79,220.41"/>
    </edge>
    <edge id=":14_5" function="internal">
        <lane id=":14_5_0" index="0" speed="5.69" length="9.22" width="3.20" shape="135.60,212.26 132.85,212.39 131.27,213.36 130.87,215.17 131.64,217.82"/>
    </edge>
    <edge id=":14_6" function="internal">
        <lane id=":14_6_0" index="0" speed="13.89" length="30.78" width="3.20" shape="135.60,212.26 126.90,211.39 120.83,211.05 114.91,211.84 106.64,214.36"/>
        <lane id=":14_6_1" index="1" speed="13.89" length="30.78" width="3.20" shape="135.87,209.07 126.83,208.19 120.43,207.87 114.19,208.72 105.58,211.34"/>
        <lane id=":14_6_2" index="2" speed="13.89" length="30.78" width="3.20" shape="136.14,205.88 126.89,205.03 120.04,204.77 113.34,205.67 104.53,208.32"/>
    </edge>
    <edge id=":14_9" function="internal">
        <lane id=":14_9_0" index="0" speed="3.65" length="1.44" width="3.20" shape="136.14,205.88 135.02,204.98"/>
    </edge>
    <edge id=":14_17" function="internal">
        <lane id=":14_17_0" index="0" speed="3.65" length="3.23" width="3.20" shape="135.02,204.98 134.69,204.15 135.15,203.39 136.42,202.69"/>
    </edge>
    <edge id=":14_10" function="internal">
        <lane id=":14_10_0" index="0" speed="13.89" length="34.76" width="3.20" shape="101.36,199.25 110.80,196.53 118.87,195.45 127.08,195.54 136.96,196.31"/>
        <lane id=":14_10_1" index="1" speed="13.89" length="34.76" width="3.20" shape="102.42,202.27 111.64,199.58 119.26,198.56 127.02,198.70 136.69,199.50"/>
        <lane id=":14_10_2" index="2" speed="13.89" length="34.76" width="3.20" shape="103.47,205.30 112.49,202.62 119.65,201.66 126.95,201.87 136.42,202.69"/>
    </edge>
    <edge id=":14_13" function="internal">
        <lane id=":14_13_0" index="0" speed="12.19" length="5.62" width="3.20" shape="103.47,205.30 109.01,204.37"/>
        <lane id=":14_13_1" index="1" speed="11.76" length="4.33" width="3.20" shape="103.47,205.30 107.76,204.75"/>
    </edge>
    <edge id=":14_15" function="internal">
        <lane id=":14_15_0" index="0" speed="3.65" length="1.44" width="3.20" shape="103.47,205.30 104.87,205.66"/>
    </edge>
    <edge id=":14_18" function="internal">
        <lane id=":14_18_0" index="0" speed="12.19" length="26.56" width="3.20" shape="109.01,204.37 111.26,203.99 118.06,205.86 123.88,210.90 128.71,219.11"/>
    </edge>
    <edge id=":14_19" function="internal">
        <lane id=":14_19_0" index="0" speed="11.76" length="25.58" width="3.20" shape="107.76,204.75 109.94,204.47 115.81,206.71 121.09,212.03 125.79,220.41"/>
    </edge>
    <edge id=":14_20" function="internal">
        <lane id=":14_20_0" index="0" speed="3.65" length="3.23" width="3.20" shape="104.87,205.66 105.51,206.28 105.39,207.17 104.53,208.32"/>
    </edge>
    <edge id=":18_0" function="internal">
        <lane id=":18_0_0" index="0" speed="10.52" length="18.07" width="3.20" shape="624.70,513.64 622.31,512.37 618.63,512.25 613.68,513.29 607.43,515.49"/>
    </edge>
    <edge id=":18_1" function="internal">
        <lane id=":18_1_0" index="0" speed="13.89" length="30.19" width="3.20" shape="624.70,513.64 618.54,507.31 614.08,503.23 609.37,499.42 602.47,493.90"/>
        <lane id=":18_1_1" index="1" speed="13.89" length="30.19" width="3.20" shape="627.02,511.44 620.79,505.04 616.26,500.89 611.47,497.00 604.48,491.42"/>
        <lane id=":18_1_2" index="2" speed="13.89" length="30.19" width="3.20" shape="629.35,509.24 623.07,502.80 618.43,498.54 613.54,494.56 606.50,488.93"/>
    </edge>
    <edge id=":18_4" function="internal">
        <lane id=":18_4_0" index="0" speed="13.74" length="3.63" width="3.20" shape="629.35,509.24 627.38,506.20"/>
    </edge>
    <edge id=":18_5" function="internal">
        <lane id=":18_5_0" index="0" speed="3.65" length="1.44" width="3.20" shape="629.35,509.24 629.11,507.82"/>
    </edge>
    <edge id=":18_24" function="internal">
        <lane id=":18_24_0" index="0" speed="13.74" length="23.87" width="3.20" shape="627.38,506.20 626.27,504.47 624.92,498.52 625.31,491.39 627.45,483.08"/>
    </edge>
    <edge id=":18_25" function="internal">
        <lane id=":18_25_0" index="0" speed="3.65" length="3.23" width="3.20" shape="629.11,507.82 629.41,506.98 630.27,506.72 631.68,507.04"/>
    </edge>
    <edge id=":18_6" function="internal">
        <lane id=":18_6_0" index="0" speed="10.93" length="17.16" width="3.20" shape="636.54,486.15 634.97,491.80 634.41,496.44 634.86,500.05 636.33,502.65"/>
    </edge>
    <edge id=":18_7" function="internal">
        <lane id=":18_7_0" index="0" speed="13.89" length="42.65" width="3.20" shape="636.54,486.15 632.15,495.62 625.83,503.67 617.59,510.29 607.43,515.49"/>
        <lane id=":18_7_1" index="1" speed="13.89" length="39.89" width="3.20" shape="633.51,485.13 629.41,493.96 623.49,501.46 615.77,507.65 606.24,512.52"/>
        <lane id=":18_7_2" index="2" speed="13.89" length="37.13" width="3.20" shape="630.48,484.11 626.67,492.29 621.16,499.26 613.95,505.01 605.04,509.55"/>
    </edge>
    <edge id=":18_10" function="internal">
        <lane id=":18_10_0" index="0" speed="10.25" length="8.45" width="3.20" shape="630.48,484.11 626.38,491.50"/>
    </edge>
    <edge id=":18_11" function="internal">
        <lane id=":18_11_0" index="0" speed="3.65" length="1.44" width="3.20" shape="630.48,484.11 629.34,484.99"/>
    </edge>
    <edge id=":18_26" function="internal">
        <lane id=":18_26_0" index="0" speed="10.25" length="22.06" width="3.20" shape="626.38,491.50 620.82,494.56 614.09,493.60 606.50,488.93"/>
    </edge>
    <edge id=":18_27" function="internal">
        <lane id=":18_27_0" index="0" speed="3.65" length="3.23" width="3.20" shape="629.34,484.99 628.45,485.11 627.82,484.48 627.45,483.08"/>
    </edge>
    <edge id=":18_12" function="internal">
        <lane id=":18_12_0" index="0" speed="6.38" length="11.00" width="3.20" shape="612.55,481.48 615.66,483.53 618.17,484.14 620.07,483.31 621.38,481.04"/>
    </edge>
    <edge id=":18_13" function="internal">
        <lane id=":18_13_0" index="0" speed="13.89" length="31.46" width="3.20" shape="612.55,481.48 619.73,487.24 624.94,491.52 629.90,496.07 636.33,502.65"/>
        <lane id=":18_13_1" index="1" speed="13.89" length="31.46" width="3.20" shape="610.53,483.96 617.66,489.68 622.77,493.86 627.63,498.31 634.00,504.85"/>
        <lane id=":18_13_2" index="2" speed="13.89" length="31.46" width="3.20" shape="608.52,486.45 615.60,492.12 620.60,496.20 625.35,500.56 631.68,507.04"/>
    </edge>
    <edge id=":18_16" function="internal">
        <lane id=":18_16_0" index="0" speed="9.73" length="3.73" width="3.20" shape="608.52,486.45 610.93,489.29"/>
    </edge>
    <edge id=":18_17" function="internal">
        <lane id=":18_17_0" index="0" speed="3.65" length="1.44" width="3.20" shape="608.52,486.45 608.94,487.83"/>
    </edge>
    <edge id=":18_28" function="internal">
        <lane id=":18_28_0" index="0" speed="9.73" length="26.03" width="3.20" shape="610.93,489.29 613.92,492.83 615.07,499.25 612.08,505.04 605.04,509.55"/>
    </edge>
    <edge id=":18_29" function="internal">
        <lane id=":18_29_0" index="0" speed="3.65" length="3.23" width="3.20" shape="608.94,487.83 608.75,488.70 607.94,489.07 606.50,488.93"/>
    </edge>
    <edge id=":18_18" function="internal">
        <lane id=":18_18_0" index="0" speed="5.69" length="9.22" width="3.20" shape="601.45,500.65 603.85,499.28 604.82,497.71 604.36,495.91 602.47,493.90"/>
    </edge>
    <edge id=":18_19" function="internal">
        <lane id=":18_19_0" index="0" speed="13.89" length="28.85" width="3.20" shape="601.45,500.65 608.48,497.09 614.14,492.64 618.44,487.29 621.38,481.04"/>
        <lane id=":18_19_1" index="1" speed="13.89" length="31.61" width="3.20" shape="602.65,503.61 610.30,499.73 616.48,494.85 621.18,488.96 624.41,482.06"/>
        <lane id=":18_19_2" index="2" speed="13.89" length="34.37" width="3.20" shape="603.85,506.58 612.12,502.37 618.82,497.05 623.92,490.62 627.45,483.08"/>
    </edge>
    <edge id=":18_22" function="internal">
        <lane id=":18_22_0" index="0" speed="13.33" length="4.43" width="3.20" shape="603.85,506.58 608.06,505.22"/>
    </edge>
    <edge id=":18_23" function="internal">
        <lane id=":18_23_0" index="0" speed="3.65" length="1.44" width="3.20" shape="603.85,506.58 605.26,506.88"/>
    </edge>
    <edge id=":18_30" function="internal">
        <lane id=":18_30_0" index="0" speed="13.33" length="25.01" width="3.20" shape="608.06,505.22 613.02,503.61 620.72,502.70 626.94,503.84 631.68,507.04"/>
    </edge>
    <edge id=":18_31" function="internal">
        <lane id=":18_31_0" index="0" speed="3.65" length="3.23" width="3.20" shape="605.26,506.88 605.93,507.47 605.86,508.36 605.04,509.55"/>
    </edge>
    <edge id=":2_0" function="internal">
        <lane id=":2_0_0" index="0" speed="13.89" length="29.56" width="3.20" shape="173.69,361.90 171.84,353.50 170.62,347.71 168.93,342.08 165.69,334.14"/>
        <lane id=":2_0_1" index="1" speed="13.89" length="29.56" width="3.20" shape="176.80,361.16 174.91,352.58 173.66,346.68 171.93,340.94 168.61,332.85"/>
        <lane id=":2_0_2" index="2" speed="13.89" length="29.56" width="3.20" shape="179.91,360.41 177.98,351.68 176.69,345.65 174.92,339.79 171.54,331.55"/>
    </edge>
    <edge id=":2_3" function="internal">
        <lane id=":2_3_0" index="0" speed="10.11" length="4.04" width="3.20" shape="179.91,360.41 179.74,356.37"/>
        <lane id=":2_3_1" index="1" speed="9.57" length="3.73" width="3.20" shape="179.91,360.41 179.82,356.68"/>
    </edge>
    <edge id=":2_5" function="internal">
        <lane id=":2_5_0" index="0" speed="3.65" length="1.44" width="3.20" shape="179.91,360.41 180.41,359.06"/>
    </edge>
    <edge id=":2_15" function="internal">
        <lane id=":2_15_0" index="0" speed="10.11" length="30.15" width="3.20" shape="179.74,356.37 179.51,350.74 183.00,343.81 189.70,340.58 198.91,342.00"/>
    </edge>
    <edge id=":2_16" function="internal">